*SPEF "ieee 1481-1999"
*DESIGN "macro_golden"
*DATE "11:11:11 Fri 11 11, 1111"
*VENDOR "OpenRCX"
*PROGRAM "Parallel Extraction"
*VERSION "1.0"
*DESIGN_FLOW "NAME_SCOPE LOCAL" "PIN_CAP NONE"
*DIVIDER /
*DELIMITER :
*BUS_DELIMITER []
*T_UNIT 1 NS
*C_UNIT 1 PF
*R_UNIT 1 OHM
*L_UNIT 1 HENRY

*NAME_MAP
*1 io_active
*2 io_in[0]
*3 io_in[10]
*4 io_in[11]
*5 io_in[12]
*6 io_in[13]
*7 io_in[14]
*8 io_in[15]
*9 io_in[16]
*10 io_in[17]
*11 io_in[18]
*12 io_in[19]
*13 io_in[1]
*14 io_in[20]
*15 io_in[21]
*16 io_in[22]
*17 io_in[23]
*18 io_in[24]
*19 io_in[25]
*20 io_in[26]
*21 io_in[27]
*22 io_in[28]
*23 io_in[29]
*24 io_in[2]
*25 io_in[30]
*26 io_in[31]
*27 io_in[32]
*28 io_in[33]
*29 io_in[34]
*30 io_in[35]
*31 io_in[36]
*32 io_in[37]
*33 io_in[3]
*34 io_in[4]
*35 io_in[5]
*36 io_in[6]
*37 io_in[7]
*38 io_in[8]
*39 io_in[9]
*40 net226
*41 net236
*42 net237
*43 net238
*44 net239
*45 net240
*46 net241
*47 net242
*48 net243
*49 net244
*50 net245
*51 net227
*52 net246
*53 net247
*54 net248
*55 net249
*56 net250
*57 net251
*58 net252
*59 net253
*60 net254
*61 net255
*62 net228
*63 net256
*64 net257
*65 net258
*66 net37
*67 net38
*68 net39
*69 net40
*70 net41
*71 net229
*72 net230
*73 net231
*74 net232
*75 net233
*76 net234
*77 net235
*78 io_out[0]
*79 io_out[10]
*80 io_out[11]
*81 io_out[12]
*82 io_out[13]
*83 io_out[14]
*84 io_out[15]
*85 io_out[16]
*86 io_out[17]
*87 net45
*88 net46
*89 net42
*90 net47
*91 net48
*92 net49
*93 net50
*94 net51
*95 net52
*96 net53
*97 net54
*98 net55
*99 net56
*100 net43
*101 net57
*102 net58
*103 net59
*104 net60
*105 net61
*106 net62
*107 net63
*108 net64
*109 net44
*110 io_out[4]
*111 io_out[5]
*112 io_out[6]
*113 io_out[7]
*114 io_out[8]
*115 io_out[9]
*116 la_data_in[0]
*117 la_data_in[100]
*118 la_data_in[101]
*119 la_data_in[102]
*120 la_data_in[103]
*121 la_data_in[104]
*122 la_data_in[105]
*123 la_data_in[106]
*124 la_data_in[107]
*125 la_data_in[108]
*126 la_data_in[109]
*127 la_data_in[10]
*128 la_data_in[110]
*129 la_data_in[111]
*130 la_data_in[112]
*131 la_data_in[113]
*132 la_data_in[114]
*133 la_data_in[115]
*134 la_data_in[116]
*135 la_data_in[117]
*136 la_data_in[118]
*137 la_data_in[119]
*138 la_data_in[11]
*139 la_data_in[120]
*140 la_data_in[121]
*141 la_data_in[122]
*142 la_data_in[123]
*143 la_data_in[124]
*144 la_data_in[125]
*145 la_data_in[126]
*146 la_data_in[127]
*147 la_data_in[12]
*148 la_data_in[13]
*149 la_data_in[14]
*150 la_data_in[15]
*151 la_data_in[16]
*152 la_data_in[17]
*153 la_data_in[18]
*154 la_data_in[19]
*155 la_data_in[1]
*156 la_data_in[20]
*157 la_data_in[21]
*158 la_data_in[22]
*159 la_data_in[23]
*160 la_data_in[24]
*161 la_data_in[25]
*162 la_data_in[26]
*163 la_data_in[27]
*164 la_data_in[28]
*165 la_data_in[29]
*166 la_data_in[2]
*167 la_data_in[30]
*168 la_data_in[31]
*169 la_data_in[32]
*170 la_data_in[33]
*171 la_data_in[34]
*172 la_data_in[35]
*173 la_data_in[36]
*174 la_data_in[37]
*175 la_data_in[38]
*176 la_data_in[39]
*177 la_data_in[3]
*178 la_data_in[40]
*179 la_data_in[41]
*180 la_data_in[42]
*181 la_data_in[43]
*182 la_data_in[44]
*183 la_data_in[45]
*184 la_data_in[46]
*185 la_data_in[47]
*186 la_data_in[48]
*187 la_data_in[49]
*188 la_data_in[4]
*189 la_data_in[50]
*190 la_data_in[51]
*191 la_data_in[52]
*192 la_data_in[53]
*193 la_data_in[54]
*194 la_data_in[55]
*195 la_data_in[56]
*196 la_data_in[57]
*197 la_data_in[58]
*198 la_data_in[59]
*199 la_data_in[5]
*200 la_data_in[60]
*201 la_data_in[61]
*202 la_data_in[62]
*203 la_data_in[63]
*204 la_data_in[64]
*205 la_data_in[65]
*206 la_data_in[66]
*207 la_data_in[67]
*208 la_data_in[68]
*209 la_data_in[69]
*210 la_data_in[6]
*211 la_data_in[70]
*212 la_data_in[71]
*213 la_data_in[72]
*214 la_data_in[73]
*215 la_data_in[74]
*216 la_data_in[75]
*217 la_data_in[76]
*218 la_data_in[77]
*219 la_data_in[78]
*220 la_data_in[79]
*221 la_data_in[7]
*222 la_data_in[80]
*223 la_data_in[81]
*224 la_data_in[82]
*225 la_data_in[83]
*226 la_data_in[84]
*227 la_data_in[85]
*228 la_data_in[86]
*229 la_data_in[87]
*230 la_data_in[88]
*231 la_data_in[89]
*232 la_data_in[8]
*233 la_data_in[90]
*234 la_data_in[91]
*235 la_data_in[92]
*236 la_data_in[93]
*237 la_data_in[94]
*238 la_data_in[95]
*239 la_data_in[96]
*240 la_data_in[97]
*241 la_data_in[98]
*242 la_data_in[99]
*243 la_data_in[9]
*244 net65
*245 net133
*246 net134
*247 net135
*248 net136
*249 net137
*250 net138
*251 net139
*252 net140
*253 net141
*254 net142
*255 net75
*256 net143
*257 net144
*258 net145
*259 net146
*260 net147
*261 net148
*262 net149
*263 net150
*264 net151
*265 net152
*266 net76
*267 net153
*268 net154
*269 net155
*270 net156
*271 net157
*272 net158
*273 net159
*274 net160
*275 net77
*276 net78
*277 net79
*278 net80
*279 net81
*280 net82
*281 net83
*282 net84
*283 net66
*284 net85
*285 net86
*286 net87
*287 net88
*288 net89
*289 net90
*290 net91
*291 net92
*292 net93
*293 net94
*294 net67
*295 net95
*296 net96
*297 la_data_out[32]
*298 la_data_out[33]
*299 la_data_out[34]
*300 la_data_out[35]
*301 la_data_out[36]
*302 la_data_out[37]
*303 la_data_out[38]
*304 la_data_out[39]
*305 net68
*306 la_data_out[40]
*307 la_data_out[41]
*308 la_data_out[42]
*309 la_data_out[43]
*310 la_data_out[44]
*311 la_data_out[45]
*312 la_data_out[46]
*313 la_data_out[47]
*314 la_data_out[48]
*315 la_data_out[49]
*316 net69
*317 la_data_out[50]
*318 la_data_out[51]
*319 la_data_out[52]
*320 la_data_out[53]
*321 la_data_out[54]
*322 la_data_out[55]
*323 la_data_out[56]
*324 la_data_out[57]
*325 la_data_out[58]
*326 la_data_out[59]
*327 net70
*328 la_data_out[60]
*329 la_data_out[61]
*330 la_data_out[62]
*331 la_data_out[63]
*332 net97
*333 net98
*334 net99
*335 net100
*336 net101
*337 net102
*338 net71
*339 net103
*340 net104
*341 net105
*342 net106
*343 net107
*344 net108
*345 net109
*346 net110
*347 net111
*348 net112
*349 net72
*350 net113
*351 net114
*352 net115
*353 net116
*354 net117
*355 net118
*356 net119
*357 net120
*358 net121
*359 net122
*360 net73
*361 net123
*362 net124
*363 net125
*364 net126
*365 net127
*366 net128
*367 net129
*368 net130
*369 net131
*370 net132
*371 net74
*372 la_oenb[0]
*373 la_oenb[100]
*374 la_oenb[101]
*375 la_oenb[102]
*376 la_oenb[103]
*377 la_oenb[104]
*378 la_oenb[105]
*379 la_oenb[106]
*380 la_oenb[107]
*381 la_oenb[108]
*382 la_oenb[109]
*383 la_oenb[10]
*384 la_oenb[110]
*385 la_oenb[111]
*386 la_oenb[112]
*387 la_oenb[113]
*388 la_oenb[114]
*389 la_oenb[115]
*390 la_oenb[116]
*391 la_oenb[117]
*392 la_oenb[118]
*393 la_oenb[119]
*394 la_oenb[11]
*395 la_oenb[120]
*396 la_oenb[121]
*397 la_oenb[122]
*398 la_oenb[123]
*399 la_oenb[124]
*400 la_oenb[125]
*401 la_oenb[126]
*402 la_oenb[127]
*403 la_oenb[12]
*404 la_oenb[13]
*405 la_oenb[14]
*406 la_oenb[15]
*407 la_oenb[16]
*408 la_oenb[17]
*409 la_oenb[18]
*410 la_oenb[19]
*411 la_oenb[1]
*412 la_oenb[20]
*413 la_oenb[21]
*414 la_oenb[22]
*415 la_oenb[23]
*416 la_oenb[24]
*417 la_oenb[25]
*418 la_oenb[26]
*419 la_oenb[27]
*420 la_oenb[28]
*421 la_oenb[29]
*422 la_oenb[2]
*423 la_oenb[30]
*424 la_oenb[31]
*425 la_oenb[32]
*426 la_oenb[33]
*427 la_oenb[34]
*428 la_oenb[35]
*429 la_oenb[36]
*430 la_oenb[37]
*431 la_oenb[38]
*432 la_oenb[39]
*433 la_oenb[3]
*434 la_oenb[40]
*435 la_oenb[41]
*436 la_oenb[42]
*437 la_oenb[43]
*438 la_oenb[44]
*439 la_oenb[45]
*440 la_oenb[46]
*441 la_oenb[47]
*442 la_oenb[48]
*443 la_oenb[49]
*444 la_oenb[4]
*445 la_oenb[50]
*446 la_oenb[51]
*447 la_oenb[52]
*448 la_oenb[53]
*449 la_oenb[54]
*450 la_oenb[55]
*451 la_oenb[56]
*452 la_oenb[57]
*453 la_oenb[58]
*454 la_oenb[59]
*455 la_oenb[5]
*456 la_oenb[60]
*457 la_oenb[61]
*458 la_oenb[62]
*459 la_oenb[63]
*460 la_oenb[64]
*461 la_oenb[65]
*462 la_oenb[66]
*463 la_oenb[67]
*464 la_oenb[68]
*465 la_oenb[69]
*466 la_oenb[6]
*467 la_oenb[70]
*468 la_oenb[71]
*469 la_oenb[72]
*470 la_oenb[73]
*471 la_oenb[74]
*472 la_oenb[75]
*473 la_oenb[76]
*474 la_oenb[77]
*475 la_oenb[78]
*476 la_oenb[79]
*477 la_oenb[7]
*478 la_oenb[80]
*479 la_oenb[81]
*480 la_oenb[82]
*481 la_oenb[83]
*482 la_oenb[84]
*483 la_oenb[85]
*484 la_oenb[86]
*485 la_oenb[87]
*486 la_oenb[88]
*487 la_oenb[89]
*488 la_oenb[8]
*489 la_oenb[90]
*490 la_oenb[91]
*491 la_oenb[92]
*492 la_oenb[93]
*493 la_oenb[94]
*494 la_oenb[95]
*495 la_oenb[96]
*496 la_oenb[97]
*497 la_oenb[98]
*498 la_oenb[99]
*499 la_oenb[9]
*502 wb_clk_i
*503 wb_rst_i
*504 net161
*505 wbs_adr_i[0]
*506 wbs_adr_i[10]
*507 wbs_adr_i[11]
*508 wbs_adr_i[12]
*509 wbs_adr_i[13]
*510 wbs_adr_i[14]
*511 wbs_adr_i[15]
*512 wbs_adr_i[16]
*513 wbs_adr_i[17]
*514 wbs_adr_i[18]
*515 wbs_adr_i[19]
*516 wbs_adr_i[1]
*517 wbs_adr_i[20]
*518 wbs_adr_i[21]
*519 wbs_adr_i[22]
*520 wbs_adr_i[23]
*521 wbs_adr_i[24]
*522 wbs_adr_i[25]
*523 wbs_adr_i[26]
*524 wbs_adr_i[27]
*525 wbs_adr_i[28]
*526 wbs_adr_i[29]
*527 wbs_adr_i[2]
*528 wbs_adr_i[30]
*529 wbs_adr_i[31]
*530 wbs_adr_i[3]
*531 wbs_adr_i[4]
*532 wbs_adr_i[5]
*533 wbs_adr_i[6]
*534 wbs_adr_i[7]
*535 wbs_adr_i[8]
*536 wbs_adr_i[9]
*537 wbs_cyc_i
*538 wbs_dat_i[0]
*539 wbs_dat_i[10]
*540 wbs_dat_i[11]
*541 wbs_dat_i[12]
*542 wbs_dat_i[13]
*543 wbs_dat_i[14]
*544 wbs_dat_i[15]
*545 wbs_dat_i[16]
*546 wbs_dat_i[17]
*547 wbs_dat_i[18]
*548 wbs_dat_i[19]
*549 wbs_dat_i[1]
*550 wbs_dat_i[20]
*551 wbs_dat_i[21]
*552 wbs_dat_i[22]
*553 wbs_dat_i[23]
*554 wbs_dat_i[24]
*555 wbs_dat_i[25]
*556 wbs_dat_i[26]
*557 wbs_dat_i[27]
*558 wbs_dat_i[28]
*559 wbs_dat_i[29]
*560 wbs_dat_i[2]
*561 wbs_dat_i[30]
*562 wbs_dat_i[31]
*563 wbs_dat_i[3]
*564 wbs_dat_i[4]
*565 wbs_dat_i[5]
*566 wbs_dat_i[6]
*567 wbs_dat_i[7]
*568 wbs_dat_i[8]
*569 wbs_dat_i[9]
*570 net162
*571 net172
*572 net173
*573 net174
*574 net175
*575 net176
*576 net177
*577 net178
*578 net179
*579 net180
*580 net181
*581 net163
*582 net182
*583 net183
*584 net184
*585 net185
*586 net186
*587 net187
*588 net188
*589 net189
*590 net190
*591 net191
*592 net164
*593 net192
*594 net193
*595 net165
*596 net166
*597 net167
*598 net168
*599 net169
*600 net170
*601 net171
*602 wbs_sel_i[0]
*603 wbs_sel_i[1]
*604 wbs_sel_i[2]
*605 wbs_sel_i[3]
*606 wbs_stb_i
*607 wbs_we_i
*608 _000_
*609 _001_
*610 _002_
*611 _003_
*612 _004_
*613 _005_
*614 _006_
*615 _007_
*616 _008_
*617 _009_
*618 _010_
*619 _011_
*620 _012_
*621 _013_
*622 _014_
*623 _015_
*624 _016_
*625 _017_
*626 _018_
*627 _019_
*628 _020_
*629 _021_
*630 _022_
*631 _023_
*632 _024_
*633 _025_
*634 _026_
*635 _027_
*636 _028_
*637 _029_
*638 _030_
*639 _031_
*640 _032_
*641 _033_
*642 _034_
*643 _035_
*644 _036_
*645 _037_
*646 _038_
*647 _039_
*648 _040_
*649 _041_
*650 _042_
*651 _043_
*652 _044_
*653 _045_
*654 _046_
*655 _047_
*656 _048_
*657 _049_
*658 _050_
*659 _051_
*660 _052_
*661 _053_
*662 _054_
*663 _055_
*664 _056_
*665 _057_
*666 _058_
*667 _059_
*668 _060_
*669 _061_
*670 _062_
*671 _063_
*672 _064_
*673 _065_
*674 _066_
*675 _067_
*676 _068_
*677 _069_
*678 _070_
*679 _071_
*680 _072_
*681 _073_
*682 _074_
*683 _075_
*684 _076_
*685 _077_
*686 _078_
*687 _079_
*688 _080_
*689 _081_
*690 _082_
*691 _083_
*692 _084_
*693 _085_
*694 _086_
*695 _087_
*696 _088_
*697 _089_
*698 _090_
*699 _091_
*700 _092_
*701 _093_
*702 _094_
*703 _095_
*704 _096_
*705 _097_
*706 _098_
*707 _099_
*708 _100_
*709 _101_
*710 _102_
*711 _103_
*712 _104_
*713 _105_
*714 _106_
*715 _107_
*716 _108_
*717 _109_
*718 _110_
*719 _111_
*720 _112_
*721 _113_
*722 _114_
*723 _115_
*724 _116_
*725 _117_
*726 _118_
*727 _119_
*728 _120_
*729 _121_
*730 _122_
*731 _123_
*732 _124_
*733 net1
*734 net10
*735 net11
*736 net12
*737 net13
*738 net14
*739 net15
*740 net16
*741 net17
*742 net18
*743 net19
*744 net194
*745 net195
*746 net196
*747 net197
*748 net198
*749 net199
*750 net2
*751 net20
*752 net200
*753 net201
*754 net202
*755 net203
*756 net204
*757 net205
*758 net206
*759 net207
*760 net208
*761 net209
*762 net21
*763 net210
*764 net211
*765 net212
*766 net213
*767 net214
*768 net215
*769 net216
*770 net217
*771 net218
*772 net219
*773 net22
*774 net220
*775 net221
*776 net222
*777 net223
*778 net224
*779 net225
*780 net23
*781 net24
*782 net25
*783 net26
*784 net27
*785 net28
*786 net29
*787 net3
*788 net30
*789 net31
*790 net32
*791 net33
*792 net34
*793 net35
*794 net36
*795 net4
*796 net5
*797 net6
*798 net7
*799 net8
*800 net9
*801 ANTENNA__157__A
*802 ANTENNA__158__A
*803 ANTENNA__159__A
*804 ANTENNA__170__A
*805 ANTENNA__181__A
*806 ANTENNA__192__A
*807 ANTENNA__193__A_N
*808 ANTENNA__193__B
*809 ANTENNA__211__B1
*810 ANTENNA__235__B1
*811 ANTENNA__236__A
*812 ANTENNA__237__B2
*813 ANTENNA__239__A2
*814 ANTENNA__244__A
*815 ANTENNA__246__A
*816 ANTENNA__251__A2
*817 ANTENNA__252__A2
*818 ANTENNA__253__A1
*819 ANTENNA__259__A
*820 ANTENNA__261__A
*821 ANTENNA__264__A1
*822 ANTENNA__265__A
*823 ANTENNA__268__B1
*824 ANTENNA__269__A1
*825 ANTENNA__276__A
*826 ANTENNA__278__A
*827 ANTENNA__284__A
*828 ANTENNA__285__A2
*829 ANTENNA__286__A2
*830 ANTENNA__295__A1
*831 ANTENNA__295__C1
*832 ANTENNA_input10_A
*833 ANTENNA_input11_A
*834 ANTENNA_input12_A
*835 ANTENNA_input13_A
*836 ANTENNA_input14_A
*837 ANTENNA_input15_A
*838 ANTENNA_input16_A
*839 ANTENNA_input17_A
*840 ANTENNA_input18_A
*841 ANTENNA_input19_A
*842 ANTENNA_input1_A
*843 ANTENNA_input20_A
*844 ANTENNA_input21_A
*845 ANTENNA_input2_A
*846 ANTENNA_input3_A
*847 ANTENNA_input4_A
*848 ANTENNA_input5_A
*849 ANTENNA_input6_A
*850 ANTENNA_input7_A
*851 ANTENNA_input8_A
*852 ANTENNA_input9_A
*853 ANTENNA_output31_A
*854 FILLER_0_103
*855 FILLER_0_110
*856 FILLER_0_113
*857 FILLER_0_12
*858 FILLER_0_124
*859 FILLER_0_131
*860 FILLER_0_138
*861 FILLER_0_141
*862 FILLER_0_152
*863 FILLER_0_159
*864 FILLER_0_166
*865 FILLER_0_169
*866 FILLER_0_19
*867 FILLER_0_194
*868 FILLER_0_197
*869 FILLER_0_222
*870 FILLER_0_225
*871 FILLER_0_250
*872 FILLER_0_253
*873 FILLER_0_26
*874 FILLER_0_278
*875 FILLER_0_281
*876 FILLER_0_29
*877 FILLER_0_3
*878 FILLER_0_304
*879 FILLER_0_309
*880 FILLER_0_332
*881 FILLER_0_337
*882 FILLER_0_342
*883 FILLER_0_349
*884 FILLER_0_356
*885 FILLER_0_365
*886 FILLER_0_370
*887 FILLER_0_377
*888 FILLER_0_384
*889 FILLER_0_393
*890 FILLER_0_398
*891 FILLER_0_40
*892 FILLER_0_405
*893 FILLER_0_412
*894 FILLER_0_421
*895 FILLER_0_426
*896 FILLER_0_433
*897 FILLER_0_440
*898 FILLER_0_449
*899 FILLER_0_454
*900 FILLER_0_461
*901 FILLER_0_468
*902 FILLER_0_47
*903 FILLER_0_477
*904 FILLER_0_482
*905 FILLER_0_489
*906 FILLER_0_496
*907 FILLER_0_505
*908 FILLER_0_510
*909 FILLER_0_54
*910 FILLER_0_57
*911 FILLER_0_68
*912 FILLER_0_75
*913 FILLER_0_82
*914 FILLER_0_85
*915 FILLER_0_96
*916 FILLER_10_109
*917 FILLER_10_121
*918 FILLER_10_133
*919 FILLER_10_139
*920 FILLER_10_141
*921 FILLER_10_15
*922 FILLER_10_153
*923 FILLER_10_165
*924 FILLER_10_177
*925 FILLER_10_189
*926 FILLER_10_195
*927 FILLER_10_197
*928 FILLER_10_209
*929 FILLER_10_221
*930 FILLER_10_233
*931 FILLER_10_245
*932 FILLER_10_251
*933 FILLER_10_253
*934 FILLER_10_265
*935 FILLER_10_27
*936 FILLER_10_277
*937 FILLER_10_289
*938 FILLER_10_29
*939 FILLER_10_3
*940 FILLER_10_301
*941 FILLER_10_307
*942 FILLER_10_309
*943 FILLER_10_321
*944 FILLER_10_333
*945 FILLER_10_345
*946 FILLER_10_357
*947 FILLER_10_363
*948 FILLER_10_365
*949 FILLER_10_377
*950 FILLER_10_389
*951 FILLER_10_401
*952 FILLER_10_41
*953 FILLER_10_413
*954 FILLER_10_419
*955 FILLER_10_421
*956 FILLER_10_433
*957 FILLER_10_445
*958 FILLER_10_457
*959 FILLER_10_469
*960 FILLER_10_475
*961 FILLER_10_477
*962 FILLER_10_489
*963 FILLER_10_501
*964 FILLER_10_513
*965 FILLER_10_53
*966 FILLER_10_65
*967 FILLER_10_77
*968 FILLER_10_83
*969 FILLER_10_85
*970 FILLER_10_97
*971 FILLER_11_105
*972 FILLER_11_111
*973 FILLER_11_113
*974 FILLER_11_125
*975 FILLER_11_137
*976 FILLER_11_149
*977 FILLER_11_15
*978 FILLER_11_161
*979 FILLER_11_167
*980 FILLER_11_169
*981 FILLER_11_181
*982 FILLER_11_193
*983 FILLER_11_205
*984 FILLER_11_217
*985 FILLER_11_223
*986 FILLER_11_225
*987 FILLER_11_237
*988 FILLER_11_249
*989 FILLER_11_261
*990 FILLER_11_27
*991 FILLER_11_273
*992 FILLER_11_279
*993 FILLER_11_281
*994 FILLER_11_293
*995 FILLER_11_3
*996 FILLER_11_305
*997 FILLER_11_317
*998 FILLER_11_329
*999 FILLER_11_335
*1000 FILLER_11_337
*1001 FILLER_11_349
*1002 FILLER_11_361
*1003 FILLER_11_373
*1004 FILLER_11_385
*1005 FILLER_11_39
*1006 FILLER_11_391
*1007 FILLER_11_393
*1008 FILLER_11_405
*1009 FILLER_11_417
*1010 FILLER_11_429
*1011 FILLER_11_441
*1012 FILLER_11_447
*1013 FILLER_11_449
*1014 FILLER_11_461
*1015 FILLER_11_473
*1016 FILLER_11_485
*1017 FILLER_11_497
*1018 FILLER_11_503
*1019 FILLER_11_505
*1020 FILLER_11_51
*1021 FILLER_11_513
*1022 FILLER_11_55
*1023 FILLER_11_57
*1024 FILLER_11_69
*1025 FILLER_11_81
*1026 FILLER_11_93
*1027 FILLER_12_109
*1028 FILLER_12_121
*1029 FILLER_12_133
*1030 FILLER_12_139
*1031 FILLER_12_141
*1032 FILLER_12_15
*1033 FILLER_12_153
*1034 FILLER_12_165
*1035 FILLER_12_177
*1036 FILLER_12_189
*1037 FILLER_12_195
*1038 FILLER_12_197
*1039 FILLER_12_209
*1040 FILLER_12_221
*1041 FILLER_12_233
*1042 FILLER_12_245
*1043 FILLER_12_251
*1044 FILLER_12_253
*1045 FILLER_12_265
*1046 FILLER_12_27
*1047 FILLER_12_277
*1048 FILLER_12_289
*1049 FILLER_12_29
*1050 FILLER_12_3
*1051 FILLER_12_301
*1052 FILLER_12_307
*1053 FILLER_12_309
*1054 FILLER_12_321
*1055 FILLER_12_333
*1056 FILLER_12_345
*1057 FILLER_12_357
*1058 FILLER_12_363
*1059 FILLER_12_365
*1060 FILLER_12_377
*1061 FILLER_12_389
*1062 FILLER_12_401
*1063 FILLER_12_41
*1064 FILLER_12_413
*1065 FILLER_12_419
*1066 FILLER_12_421
*1067 FILLER_12_433
*1068 FILLER_12_445
*1069 FILLER_12_457
*1070 FILLER_12_469
*1071 FILLER_12_475
*1072 FILLER_12_477
*1073 FILLER_12_489
*1074 FILLER_12_501
*1075 FILLER_12_513
*1076 FILLER_12_53
*1077 FILLER_12_65
*1078 FILLER_12_77
*1079 FILLER_12_83
*1080 FILLER_12_85
*1081 FILLER_12_97
*1082 FILLER_13_105
*1083 FILLER_13_111
*1084 FILLER_13_113
*1085 FILLER_13_125
*1086 FILLER_13_137
*1087 FILLER_13_149
*1088 FILLER_13_15
*1089 FILLER_13_161
*1090 FILLER_13_167
*1091 FILLER_13_169
*1092 FILLER_13_181
*1093 FILLER_13_193
*1094 FILLER_13_205
*1095 FILLER_13_217
*1096 FILLER_13_223
*1097 FILLER_13_225
*1098 FILLER_13_237
*1099 FILLER_13_249
*1100 FILLER_13_261
*1101 FILLER_13_27
*1102 FILLER_13_273
*1103 FILLER_13_279
*1104 FILLER_13_281
*1105 FILLER_13_293
*1106 FILLER_13_3
*1107 FILLER_13_305
*1108 FILLER_13_317
*1109 FILLER_13_329
*1110 FILLER_13_335
*1111 FILLER_13_337
*1112 FILLER_13_349
*1113 FILLER_13_361
*1114 FILLER_13_373
*1115 FILLER_13_385
*1116 FILLER_13_39
*1117 FILLER_13_391
*1118 FILLER_13_393
*1119 FILLER_13_405
*1120 FILLER_13_417
*1121 FILLER_13_429
*1122 FILLER_13_441
*1123 FILLER_13_447
*1124 FILLER_13_449
*1125 FILLER_13_461
*1126 FILLER_13_473
*1127 FILLER_13_485
*1128 FILLER_13_497
*1129 FILLER_13_503
*1130 FILLER_13_505
*1131 FILLER_13_51
*1132 FILLER_13_513
*1133 FILLER_13_55
*1134 FILLER_13_57
*1135 FILLER_13_69
*1136 FILLER_13_81
*1137 FILLER_13_93
*1138 FILLER_14_109
*1139 FILLER_14_121
*1140 FILLER_14_133
*1141 FILLER_14_139
*1142 FILLER_14_141
*1143 FILLER_14_15
*1144 FILLER_14_153
*1145 FILLER_14_165
*1146 FILLER_14_177
*1147 FILLER_14_189
*1148 FILLER_14_195
*1149 FILLER_14_197
*1150 FILLER_14_209
*1151 FILLER_14_221
*1152 FILLER_14_233
*1153 FILLER_14_245
*1154 FILLER_14_251
*1155 FILLER_14_253
*1156 FILLER_14_265
*1157 FILLER_14_27
*1158 FILLER_14_277
*1159 FILLER_14_289
*1160 FILLER_14_29
*1161 FILLER_14_3
*1162 FILLER_14_301
*1163 FILLER_14_307
*1164 FILLER_14_309
*1165 FILLER_14_321
*1166 FILLER_14_333
*1167 FILLER_14_345
*1168 FILLER_14_357
*1169 FILLER_14_363
*1170 FILLER_14_365
*1171 FILLER_14_377
*1172 FILLER_14_389
*1173 FILLER_14_401
*1174 FILLER_14_41
*1175 FILLER_14_413
*1176 FILLER_14_419
*1177 FILLER_14_421
*1178 FILLER_14_433
*1179 FILLER_14_445
*1180 FILLER_14_457
*1181 FILLER_14_469
*1182 FILLER_14_475
*1183 FILLER_14_477
*1184 FILLER_14_489
*1185 FILLER_14_501
*1186 FILLER_14_513
*1187 FILLER_14_53
*1188 FILLER_14_65
*1189 FILLER_14_77
*1190 FILLER_14_83
*1191 FILLER_14_85
*1192 FILLER_14_97
*1193 FILLER_15_105
*1194 FILLER_15_111
*1195 FILLER_15_113
*1196 FILLER_15_125
*1197 FILLER_15_137
*1198 FILLER_15_149
*1199 FILLER_15_15
*1200 FILLER_15_161
*1201 FILLER_15_167
*1202 FILLER_15_169
*1203 FILLER_15_181
*1204 FILLER_15_193
*1205 FILLER_15_205
*1206 FILLER_15_217
*1207 FILLER_15_223
*1208 FILLER_15_225
*1209 FILLER_15_237
*1210 FILLER_15_249
*1211 FILLER_15_261
*1212 FILLER_15_27
*1213 FILLER_15_273
*1214 FILLER_15_279
*1215 FILLER_15_281
*1216 FILLER_15_293
*1217 FILLER_15_3
*1218 FILLER_15_305
*1219 FILLER_15_317
*1220 FILLER_15_329
*1221 FILLER_15_335
*1222 FILLER_15_337
*1223 FILLER_15_349
*1224 FILLER_15_361
*1225 FILLER_15_373
*1226 FILLER_15_385
*1227 FILLER_15_39
*1228 FILLER_15_391
*1229 FILLER_15_393
*1230 FILLER_15_405
*1231 FILLER_15_417
*1232 FILLER_15_429
*1233 FILLER_15_441
*1234 FILLER_15_447
*1235 FILLER_15_449
*1236 FILLER_15_461
*1237 FILLER_15_473
*1238 FILLER_15_485
*1239 FILLER_15_497
*1240 FILLER_15_503
*1241 FILLER_15_505
*1242 FILLER_15_51
*1243 FILLER_15_513
*1244 FILLER_15_55
*1245 FILLER_15_57
*1246 FILLER_15_69
*1247 FILLER_15_81
*1248 FILLER_15_93
*1249 FILLER_16_109
*1250 FILLER_16_121
*1251 FILLER_16_133
*1252 FILLER_16_139
*1253 FILLER_16_141
*1254 FILLER_16_15
*1255 FILLER_16_153
*1256 FILLER_16_165
*1257 FILLER_16_177
*1258 FILLER_16_189
*1259 FILLER_16_195
*1260 FILLER_16_197
*1261 FILLER_16_209
*1262 FILLER_16_221
*1263 FILLER_16_233
*1264 FILLER_16_245
*1265 FILLER_16_251
*1266 FILLER_16_253
*1267 FILLER_16_265
*1268 FILLER_16_27
*1269 FILLER_16_277
*1270 FILLER_16_289
*1271 FILLER_16_29
*1272 FILLER_16_3
*1273 FILLER_16_301
*1274 FILLER_16_307
*1275 FILLER_16_309
*1276 FILLER_16_321
*1277 FILLER_16_333
*1278 FILLER_16_345
*1279 FILLER_16_357
*1280 FILLER_16_363
*1281 FILLER_16_365
*1282 FILLER_16_377
*1283 FILLER_16_389
*1284 FILLER_16_401
*1285 FILLER_16_41
*1286 FILLER_16_413
*1287 FILLER_16_419
*1288 FILLER_16_421
*1289 FILLER_16_433
*1290 FILLER_16_445
*1291 FILLER_16_457
*1292 FILLER_16_469
*1293 FILLER_16_475
*1294 FILLER_16_477
*1295 FILLER_16_489
*1296 FILLER_16_501
*1297 FILLER_16_513
*1298 FILLER_16_53
*1299 FILLER_16_65
*1300 FILLER_16_77
*1301 FILLER_16_83
*1302 FILLER_16_85
*1303 FILLER_16_97
*1304 FILLER_17_105
*1305 FILLER_17_111
*1306 FILLER_17_113
*1307 FILLER_17_125
*1308 FILLER_17_137
*1309 FILLER_17_149
*1310 FILLER_17_15
*1311 FILLER_17_161
*1312 FILLER_17_167
*1313 FILLER_17_169
*1314 FILLER_17_181
*1315 FILLER_17_193
*1316 FILLER_17_205
*1317 FILLER_17_217
*1318 FILLER_17_223
*1319 FILLER_17_225
*1320 FILLER_17_237
*1321 FILLER_17_249
*1322 FILLER_17_261
*1323 FILLER_17_27
*1324 FILLER_17_273
*1325 FILLER_17_279
*1326 FILLER_17_281
*1327 FILLER_17_293
*1328 FILLER_17_3
*1329 FILLER_17_305
*1330 FILLER_17_317
*1331 FILLER_17_329
*1332 FILLER_17_335
*1333 FILLER_17_337
*1334 FILLER_17_349
*1335 FILLER_17_361
*1336 FILLER_17_373
*1337 FILLER_17_385
*1338 FILLER_17_39
*1339 FILLER_17_391
*1340 FILLER_17_393
*1341 FILLER_17_405
*1342 FILLER_17_417
*1343 FILLER_17_429
*1344 FILLER_17_441
*1345 FILLER_17_447
*1346 FILLER_17_449
*1347 FILLER_17_461
*1348 FILLER_17_473
*1349 FILLER_17_485
*1350 FILLER_17_497
*1351 FILLER_17_503
*1352 FILLER_17_505
*1353 FILLER_17_51
*1354 FILLER_17_513
*1355 FILLER_17_55
*1356 FILLER_17_57
*1357 FILLER_17_69
*1358 FILLER_17_81
*1359 FILLER_17_93
*1360 FILLER_18_109
*1361 FILLER_18_121
*1362 FILLER_18_133
*1363 FILLER_18_139
*1364 FILLER_18_141
*1365 FILLER_18_15
*1366 FILLER_18_153
*1367 FILLER_18_165
*1368 FILLER_18_177
*1369 FILLER_18_189
*1370 FILLER_18_195
*1371 FILLER_18_197
*1372 FILLER_18_209
*1373 FILLER_18_221
*1374 FILLER_18_233
*1375 FILLER_18_245
*1376 FILLER_18_251
*1377 FILLER_18_253
*1378 FILLER_18_265
*1379 FILLER_18_27
*1380 FILLER_18_277
*1381 FILLER_18_289
*1382 FILLER_18_29
*1383 FILLER_18_3
*1384 FILLER_18_301
*1385 FILLER_18_307
*1386 FILLER_18_309
*1387 FILLER_18_321
*1388 FILLER_18_333
*1389 FILLER_18_345
*1390 FILLER_18_357
*1391 FILLER_18_363
*1392 FILLER_18_365
*1393 FILLER_18_377
*1394 FILLER_18_389
*1395 FILLER_18_401
*1396 FILLER_18_41
*1397 FILLER_18_413
*1398 FILLER_18_419
*1399 FILLER_18_421
*1400 FILLER_18_433
*1401 FILLER_18_445
*1402 FILLER_18_457
*1403 FILLER_18_469
*1404 FILLER_18_475
*1405 FILLER_18_477
*1406 FILLER_18_489
*1407 FILLER_18_501
*1408 FILLER_18_513
*1409 FILLER_18_53
*1410 FILLER_18_65
*1411 FILLER_18_77
*1412 FILLER_18_83
*1413 FILLER_18_85
*1414 FILLER_18_97
*1415 FILLER_19_105
*1416 FILLER_19_111
*1417 FILLER_19_113
*1418 FILLER_19_125
*1419 FILLER_19_137
*1420 FILLER_19_149
*1421 FILLER_19_15
*1422 FILLER_19_161
*1423 FILLER_19_167
*1424 FILLER_19_169
*1425 FILLER_19_181
*1426 FILLER_19_193
*1427 FILLER_19_205
*1428 FILLER_19_217
*1429 FILLER_19_223
*1430 FILLER_19_225
*1431 FILLER_19_237
*1432 FILLER_19_249
*1433 FILLER_19_261
*1434 FILLER_19_27
*1435 FILLER_19_273
*1436 FILLER_19_279
*1437 FILLER_19_281
*1438 FILLER_19_293
*1439 FILLER_19_3
*1440 FILLER_19_305
*1441 FILLER_19_317
*1442 FILLER_19_329
*1443 FILLER_19_335
*1444 FILLER_19_337
*1445 FILLER_19_349
*1446 FILLER_19_361
*1447 FILLER_19_373
*1448 FILLER_19_385
*1449 FILLER_19_39
*1450 FILLER_19_391
*1451 FILLER_19_393
*1452 FILLER_19_405
*1453 FILLER_19_417
*1454 FILLER_19_429
*1455 FILLER_19_441
*1456 FILLER_19_447
*1457 FILLER_19_449
*1458 FILLER_19_461
*1459 FILLER_19_473
*1460 FILLER_19_485
*1461 FILLER_19_497
*1462 FILLER_19_503
*1463 FILLER_19_505
*1464 FILLER_19_51
*1465 FILLER_19_513
*1466 FILLER_19_55
*1467 FILLER_19_57
*1468 FILLER_19_69
*1469 FILLER_19_81
*1470 FILLER_19_93
*1471 FILLER_1_103
*1472 FILLER_1_110
*1473 FILLER_1_113
*1474 FILLER_1_124
*1475 FILLER_1_131
*1476 FILLER_1_138
*1477 FILLER_1_145
*1478 FILLER_1_15
*1479 FILLER_1_152
*1480 FILLER_1_159
*1481 FILLER_1_166
*1482 FILLER_1_169
*1483 FILLER_1_175
*1484 FILLER_1_197
*1485 FILLER_1_222
*1486 FILLER_1_225
*1487 FILLER_1_231
*1488 FILLER_1_253
*1489 FILLER_1_26
*1490 FILLER_1_278
*1491 FILLER_1_281
*1492 FILLER_1_3
*1493 FILLER_1_304
*1494 FILLER_1_329
*1495 FILLER_1_33
*1496 FILLER_1_335
*1497 FILLER_1_337
*1498 FILLER_1_342
*1499 FILLER_1_349
*1500 FILLER_1_356
*1501 FILLER_1_363
*1502 FILLER_1_370
*1503 FILLER_1_377
*1504 FILLER_1_384
*1505 FILLER_1_393
*1506 FILLER_1_398
*1507 FILLER_1_40
*1508 FILLER_1_405
*1509 FILLER_1_412
*1510 FILLER_1_419
*1511 FILLER_1_426
*1512 FILLER_1_433
*1513 FILLER_1_440
*1514 FILLER_1_449
*1515 FILLER_1_454
*1516 FILLER_1_461
*1517 FILLER_1_468
*1518 FILLER_1_47
*1519 FILLER_1_475
*1520 FILLER_1_482
*1521 FILLER_1_489
*1522 FILLER_1_496
*1523 FILLER_1_505
*1524 FILLER_1_510
*1525 FILLER_1_54
*1526 FILLER_1_57
*1527 FILLER_1_68
*1528 FILLER_1_75
*1529 FILLER_1_82
*1530 FILLER_1_89
*1531 FILLER_1_96
*1532 FILLER_20_109
*1533 FILLER_20_121
*1534 FILLER_20_133
*1535 FILLER_20_139
*1536 FILLER_20_141
*1537 FILLER_20_15
*1538 FILLER_20_153
*1539 FILLER_20_165
*1540 FILLER_20_177
*1541 FILLER_20_189
*1542 FILLER_20_195
*1543 FILLER_20_197
*1544 FILLER_20_209
*1545 FILLER_20_221
*1546 FILLER_20_233
*1547 FILLER_20_245
*1548 FILLER_20_251
*1549 FILLER_20_253
*1550 FILLER_20_265
*1551 FILLER_20_27
*1552 FILLER_20_277
*1553 FILLER_20_289
*1554 FILLER_20_29
*1555 FILLER_20_3
*1556 FILLER_20_301
*1557 FILLER_20_307
*1558 FILLER_20_309
*1559 FILLER_20_321
*1560 FILLER_20_333
*1561 FILLER_20_345
*1562 FILLER_20_357
*1563 FILLER_20_363
*1564 FILLER_20_365
*1565 FILLER_20_377
*1566 FILLER_20_389
*1567 FILLER_20_401
*1568 FILLER_20_41
*1569 FILLER_20_413
*1570 FILLER_20_419
*1571 FILLER_20_421
*1572 FILLER_20_433
*1573 FILLER_20_445
*1574 FILLER_20_457
*1575 FILLER_20_469
*1576 FILLER_20_475
*1577 FILLER_20_477
*1578 FILLER_20_489
*1579 FILLER_20_501
*1580 FILLER_20_513
*1581 FILLER_20_53
*1582 FILLER_20_65
*1583 FILLER_20_77
*1584 FILLER_20_83
*1585 FILLER_20_85
*1586 FILLER_20_97
*1587 FILLER_21_105
*1588 FILLER_21_111
*1589 FILLER_21_113
*1590 FILLER_21_125
*1591 FILLER_21_137
*1592 FILLER_21_149
*1593 FILLER_21_15
*1594 FILLER_21_161
*1595 FILLER_21_167
*1596 FILLER_21_169
*1597 FILLER_21_181
*1598 FILLER_21_193
*1599 FILLER_21_205
*1600 FILLER_21_217
*1601 FILLER_21_223
*1602 FILLER_21_225
*1603 FILLER_21_237
*1604 FILLER_21_249
*1605 FILLER_21_261
*1606 FILLER_21_27
*1607 FILLER_21_273
*1608 FILLER_21_279
*1609 FILLER_21_281
*1610 FILLER_21_293
*1611 FILLER_21_3
*1612 FILLER_21_305
*1613 FILLER_21_317
*1614 FILLER_21_329
*1615 FILLER_21_335
*1616 FILLER_21_337
*1617 FILLER_21_349
*1618 FILLER_21_361
*1619 FILLER_21_373
*1620 FILLER_21_385
*1621 FILLER_21_39
*1622 FILLER_21_391
*1623 FILLER_21_393
*1624 FILLER_21_405
*1625 FILLER_21_417
*1626 FILLER_21_429
*1627 FILLER_21_441
*1628 FILLER_21_447
*1629 FILLER_21_449
*1630 FILLER_21_461
*1631 FILLER_21_473
*1632 FILLER_21_485
*1633 FILLER_21_497
*1634 FILLER_21_503
*1635 FILLER_21_505
*1636 FILLER_21_51
*1637 FILLER_21_513
*1638 FILLER_21_55
*1639 FILLER_21_57
*1640 FILLER_21_69
*1641 FILLER_21_81
*1642 FILLER_21_93
*1643 FILLER_22_109
*1644 FILLER_22_121
*1645 FILLER_22_133
*1646 FILLER_22_139
*1647 FILLER_22_141
*1648 FILLER_22_15
*1649 FILLER_22_153
*1650 FILLER_22_165
*1651 FILLER_22_177
*1652 FILLER_22_189
*1653 FILLER_22_195
*1654 FILLER_22_197
*1655 FILLER_22_209
*1656 FILLER_22_221
*1657 FILLER_22_233
*1658 FILLER_22_245
*1659 FILLER_22_251
*1660 FILLER_22_253
*1661 FILLER_22_265
*1662 FILLER_22_27
*1663 FILLER_22_277
*1664 FILLER_22_289
*1665 FILLER_22_29
*1666 FILLER_22_3
*1667 FILLER_22_301
*1668 FILLER_22_307
*1669 FILLER_22_309
*1670 FILLER_22_321
*1671 FILLER_22_333
*1672 FILLER_22_345
*1673 FILLER_22_357
*1674 FILLER_22_363
*1675 FILLER_22_365
*1676 FILLER_22_377
*1677 FILLER_22_389
*1678 FILLER_22_401
*1679 FILLER_22_41
*1680 FILLER_22_413
*1681 FILLER_22_419
*1682 FILLER_22_421
*1683 FILLER_22_433
*1684 FILLER_22_445
*1685 FILLER_22_457
*1686 FILLER_22_469
*1687 FILLER_22_475
*1688 FILLER_22_477
*1689 FILLER_22_489
*1690 FILLER_22_501
*1691 FILLER_22_513
*1692 FILLER_22_53
*1693 FILLER_22_65
*1694 FILLER_22_77
*1695 FILLER_22_83
*1696 FILLER_22_85
*1697 FILLER_22_97
*1698 FILLER_23_105
*1699 FILLER_23_111
*1700 FILLER_23_113
*1701 FILLER_23_125
*1702 FILLER_23_137
*1703 FILLER_23_149
*1704 FILLER_23_15
*1705 FILLER_23_161
*1706 FILLER_23_167
*1707 FILLER_23_169
*1708 FILLER_23_181
*1709 FILLER_23_193