*SPEF "ieee 1481-1999"
*DESIGN "macro_nand_inv"
*DATE "11:11:11 Fri 11 11, 1111"
*VENDOR "OpenRCX"
*PROGRAM "Parallel Extraction"
*VERSION "1.0"
*DESIGN_FLOW "NAME_SCOPE LOCAL" "PIN_CAP NONE"
*DIVIDER /
*DELIMITER :
*BUS_DELIMITER []
*T_UNIT 1 NS
*C_UNIT 1 PF
*R_UNIT 1 OHM
*L_UNIT 1 HENRY

*NAME_MAP
*1 io_active
*2 io_in[0]
*3 io_in[10]
*4 io_in[11]
*5 io_in[12]
*6 io_in[13]
*7 io_in[14]
*8 io_in[15]
*9 io_in[16]
*10 io_in[17]
*11 io_in[18]
*12 io_in[19]
*13 io_in[1]
*14 io_in[20]
*15 io_in[21]
*16 io_in[22]
*17 io_in[23]
*18 io_in[24]
*19 io_in[25]
*20 io_in[26]
*21 io_in[27]
*22 io_in[28]
*23 io_in[29]
*24 io_in[2]
*25 io_in[30]
*26 io_in[31]
*27 io_in[32]
*28 io_in[33]
*29 io_in[34]
*30 io_in[35]
*31 io_in[36]
*32 io_in[37]
*33 io_in[3]
*34 io_in[4]
*35 io_in[5]
*36 io_in[6]
*37 io_in[7]
*38 io_in[8]
*39 io_in[9]
*40 io_oeb[0]
*41 io_oeb[10]
*42 io_oeb[11]
*43 io_oeb[12]
*44 io_oeb[13]
*45 io_oeb[14]
*46 io_oeb[15]
*47 io_oeb[16]
*48 io_oeb[17]
*49 io_oeb[18]
*50 io_oeb[19]
*51 io_oeb[1]
*52 io_oeb[20]
*53 io_oeb[21]
*54 io_oeb[22]
*55 io_oeb[23]
*56 io_oeb[24]
*57 io_oeb[25]
*58 io_oeb[26]
*59 io_oeb[27]
*60 io_oeb[28]
*61 io_oeb[29]
*62 io_oeb[2]
*63 io_oeb[30]
*64 io_oeb[31]
*65 io_oeb[32]
*66 io_oeb[33]
*67 io_oeb[34]
*68 io_oeb[35]
*69 io_oeb[36]
*70 io_oeb[37]
*71 io_oeb[3]
*72 io_oeb[4]
*73 io_oeb[5]
*74 io_oeb[6]
*75 io_oeb[7]
*76 io_oeb[8]
*77 io_oeb[9]
*78 io_out[0]
*79 io_out[10]
*80 io_out[11]
*81 io_out[12]
*82 io_out[13]
*83 io_out[14]
*84 io_out[15]
*85 io_out[16]
*86 io_out[17]
*87 io_out[18]
*88 io_out[19]
*89 io_out[1]
*90 io_out[20]
*91 io_out[21]
*92 io_out[22]
*93 io_out[23]
*94 io_out[24]
*95 io_out[25]
*96 io_out[26]
*97 io_out[27]
*98 io_out[28]
*99 io_out[29]
*100 io_out[2]
*101 io_out[30]
*102 io_out[31]
*103 io_out[32]
*104 io_out[33]
*105 io_out[34]
*106 io_out[35]
*107 io_out[36]
*108 io_out[37]
*109 io_out[3]
*110 io_out[4]
*111 io_out[5]
*112 io_out[6]
*113 io_out[7]
*114 io_out[8]
*115 io_out[9]
*116 la_data_in[0]
*117 la_data_in[100]
*118 la_data_in[101]
*119 la_data_in[102]
*120 la_data_in[103]
*121 la_data_in[104]
*122 la_data_in[105]
*123 la_data_in[106]
*124 la_data_in[107]
*125 la_data_in[108]
*126 la_data_in[109]
*127 la_data_in[10]
*128 la_data_in[110]
*129 la_data_in[111]
*130 la_data_in[112]
*131 la_data_in[113]
*132 la_data_in[114]
*133 la_data_in[115]
*134 la_data_in[116]
*135 la_data_in[117]
*136 la_data_in[118]
*137 la_data_in[119]
*138 la_data_in[11]
*139 la_data_in[120]
*140 la_data_in[121]
*141 la_data_in[122]
*142 la_data_in[123]
*143 la_data_in[124]
*144 la_data_in[125]
*145 la_data_in[126]
*146 la_data_in[127]
*147 la_data_in[12]
*148 la_data_in[13]
*149 la_data_in[14]
*150 la_data_in[15]
*151 la_data_in[16]
*152 la_data_in[17]
*153 la_data_in[18]
*154 la_data_in[19]
*155 la_data_in[1]
*156 la_data_in[20]
*157 la_data_in[21]
*158 la_data_in[22]
*159 la_data_in[23]
*160 la_data_in[24]
*161 la_data_in[25]
*162 la_data_in[26]
*163 la_data_in[27]
*164 la_data_in[28]
*165 la_data_in[29]
*166 la_data_in[2]
*167 la_data_in[30]
*168 la_data_in[31]
*169 la_data_in[32]
*170 la_data_in[33]
*171 la_data_in[34]
*172 la_data_in[35]
*173 la_data_in[36]
*174 la_data_in[37]
*175 la_data_in[38]
*176 la_data_in[39]
*177 la_data_in[3]
*178 la_data_in[40]
*179 la_data_in[41]
*180 la_data_in[42]
*181 la_data_in[43]
*182 la_data_in[44]
*183 la_data_in[45]
*184 la_data_in[46]
*185 la_data_in[47]
*186 la_data_in[48]
*187 la_data_in[49]
*188 la_data_in[4]
*189 la_data_in[50]
*190 la_data_in[51]
*191 la_data_in[52]
*192 la_data_in[53]
*193 la_data_in[54]
*194 la_data_in[55]
*195 la_data_in[56]
*196 la_data_in[57]
*197 la_data_in[58]
*198 la_data_in[59]
*199 la_data_in[5]
*200 la_data_in[60]
*201 la_data_in[61]
*202 la_data_in[62]
*203 la_data_in[63]
*204 la_data_in[64]
*205 la_data_in[65]
*206 la_data_in[66]
*207 la_data_in[67]
*208 la_data_in[68]
*209 la_data_in[69]
*210 la_data_in[6]
*211 la_data_in[70]
*212 la_data_in[71]
*213 la_data_in[72]
*214 la_data_in[73]
*215 la_data_in[74]
*216 la_data_in[75]
*217 la_data_in[76]
*218 la_data_in[77]
*219 la_data_in[78]
*220 la_data_in[79]
*221 la_data_in[7]
*222 la_data_in[80]
*223 la_data_in[81]
*224 la_data_in[82]
*225 la_data_in[83]
*226 la_data_in[84]
*227 la_data_in[85]
*228 la_data_in[86]
*229 la_data_in[87]
*230 la_data_in[88]
*231 la_data_in[89]
*232 la_data_in[8]
*233 la_data_in[90]
*234 la_data_in[91]
*235 la_data_in[92]
*236 la_data_in[93]
*237 la_data_in[94]
*238 la_data_in[95]
*239 la_data_in[96]
*240 la_data_in[97]
*241 la_data_in[98]
*242 la_data_in[99]
*243 la_data_in[9]
*244 la_data_out[0]
*245 la_data_out[100]
*246 la_data_out[101]
*247 la_data_out[102]
*248 la_data_out[103]
*249 la_data_out[104]
*250 la_data_out[105]
*251 la_data_out[106]
*252 la_data_out[107]
*253 la_data_out[108]
*254 la_data_out[109]
*255 la_data_out[10]
*256 la_data_out[110]
*257 la_data_out[111]
*258 la_data_out[112]
*259 la_data_out[113]
*260 la_data_out[114]
*261 la_data_out[115]
*262 la_data_out[116]
*263 la_data_out[117]
*264 la_data_out[118]
*265 la_data_out[119]
*266 la_data_out[11]
*267 la_data_out[120]
*268 la_data_out[121]
*269 la_data_out[122]
*270 la_data_out[123]
*271 la_data_out[124]
*272 la_data_out[125]
*273 la_data_out[126]
*274 la_data_out[127]
*275 la_data_out[12]
*276 la_data_out[13]
*277 la_data_out[14]
*278 la_data_out[15]
*279 la_data_out[16]
*280 la_data_out[17]
*281 la_data_out[18]
*282 la_data_out[19]
*283 la_data_out[1]
*284 la_data_out[20]
*285 la_data_out[21]
*286 la_data_out[22]
*287 la_data_out[23]
*288 la_data_out[24]
*289 la_data_out[25]
*290 la_data_out[26]
*291 la_data_out[27]
*292 la_data_out[28]
*293 la_data_out[29]
*294 la_data_out[2]
*295 la_data_out[30]
*296 la_data_out[31]
*297 la_data_out[32]
*298 la_data_out[33]
*299 la_data_out[34]
*300 la_data_out[35]
*301 la_data_out[36]
*302 la_data_out[37]
*303 la_data_out[38]
*304 la_data_out[39]
*305 la_data_out[3]
*306 la_data_out[40]
*307 la_data_out[41]
*308 la_data_out[42]
*309 la_data_out[43]
*310 la_data_out[44]
*311 la_data_out[45]
*312 la_data_out[46]
*313 la_data_out[47]
*314 la_data_out[48]
*315 la_data_out[49]
*316 la_data_out[4]
*317 la_data_out[50]
*318 la_data_out[51]
*319 la_data_out[52]
*320 la_data_out[53]
*321 la_data_out[54]
*322 la_data_out[55]
*323 la_data_out[56]
*324 la_data_out[57]
*325 la_data_out[58]
*326 la_data_out[59]
*327 la_data_out[5]
*328 la_data_out[60]
*329 la_data_out[61]
*330 la_data_out[62]
*331 la_data_out[63]
*332 la_data_out[64]
*333 la_data_out[65]
*334 la_data_out[66]
*335 la_data_out[67]
*336 la_data_out[68]
*337 la_data_out[69]
*338 la_data_out[6]
*339 la_data_out[70]
*340 la_data_out[71]
*341 la_data_out[72]
*342 la_data_out[73]
*343 la_data_out[74]
*344 la_data_out[75]
*345 la_data_out[76]
*346 la_data_out[77]
*347 la_data_out[78]
*348 la_data_out[79]
*349 la_data_out[7]
*350 la_data_out[80]
*351 la_data_out[81]
*352 la_data_out[82]
*353 la_data_out[83]
*354 la_data_out[84]
*355 la_data_out[85]
*356 la_data_out[86]
*357 la_data_out[87]
*358 la_data_out[88]
*359 la_data_out[89]
*360 la_data_out[8]
*361 la_data_out[90]
*362 la_data_out[91]
*363 la_data_out[92]
*364 la_data_out[93]
*365 la_data_out[94]
*366 la_data_out[95]
*367 la_data_out[96]
*368 la_data_out[97]
*369 la_data_out[98]
*370 la_data_out[99]
*371 la_data_out[9]
*372 la_oenb[0]
*373 la_oenb[100]
*374 la_oenb[101]
*375 la_oenb[102]
*376 la_oenb[103]
*377 la_oenb[104]
*378 la_oenb[105]
*379 la_oenb[106]
*380 la_oenb[107]
*381 la_oenb[108]
*382 la_oenb[109]
*383 la_oenb[10]
*384 la_oenb[110]
*385 la_oenb[111]
*386 la_oenb[112]
*387 la_oenb[113]
*388 la_oenb[114]
*389 la_oenb[115]
*390 la_oenb[116]
*391 la_oenb[117]
*392 la_oenb[118]
*393 la_oenb[119]
*394 la_oenb[11]
*395 la_oenb[120]
*396 la_oenb[121]
*397 la_oenb[122]
*398 la_oenb[123]
*399 la_oenb[124]
*400 la_oenb[125]
*401 la_oenb[126]
*402 la_oenb[127]
*403 la_oenb[12]
*404 la_oenb[13]
*405 la_oenb[14]
*406 la_oenb[15]
*407 la_oenb[16]
*408 la_oenb[17]
*409 la_oenb[18]
*410 la_oenb[19]
*411 la_oenb[1]
*412 la_oenb[20]
*413 la_oenb[21]
*414 la_oenb[22]
*415 la_oenb[23]
*416 la_oenb[24]
*417 la_oenb[25]
*418 la_oenb[26]
*419 la_oenb[27]
*420 la_oenb[28]
*421 la_oenb[29]
*422 la_oenb[2]
*423 la_oenb[30]
*424 la_oenb[31]
*425 la_oenb[32]
*426 la_oenb[33]
*427 la_oenb[34]
*428 la_oenb[35]
*429 la_oenb[36]
*430 la_oenb[37]
*431 la_oenb[38]
*432 la_oenb[39]
*433 la_oenb[3]
*434 la_oenb[40]
*435 la_oenb[41]
*436 la_oenb[42]
*437 la_oenb[43]
*438 la_oenb[44]
*439 la_oenb[45]
*440 la_oenb[46]
*441 la_oenb[47]
*442 la_oenb[48]
*443 la_oenb[49]
*444 la_oenb[4]
*445 la_oenb[50]
*446 la_oenb[51]
*447 la_oenb[52]
*448 la_oenb[53]
*449 la_oenb[54]
*450 la_oenb[55]
*451 la_oenb[56]
*452 la_oenb[57]
*453 la_oenb[58]
*454 la_oenb[59]
*455 la_oenb[5]
*456 la_oenb[60]
*457 la_oenb[61]
*458 la_oenb[62]
*459 la_oenb[63]
*460 la_oenb[64]
*461 la_oenb[65]
*462 la_oenb[66]
*463 la_oenb[67]
*464 la_oenb[68]
*465 la_oenb[69]
*466 la_oenb[6]
*467 la_oenb[70]
*468 la_oenb[71]
*469 la_oenb[72]
*470 la_oenb[73]
*471 la_oenb[74]
*472 la_oenb[75]
*473 la_oenb[76]
*474 la_oenb[77]
*475 la_oenb[78]
*476 la_oenb[79]
*477 la_oenb[7]
*478 la_oenb[80]
*479 la_oenb[81]
*480 la_oenb[82]
*481 la_oenb[83]
*482 la_oenb[84]
*483 la_oenb[85]
*484 la_oenb[86]
*485 la_oenb[87]
*486 la_oenb[88]
*487 la_oenb[89]
*488 la_oenb[8]
*489 la_oenb[90]
*490 la_oenb[91]
*491 la_oenb[92]
*492 la_oenb[93]
*493 la_oenb[94]
*494 la_oenb[95]
*495 la_oenb[96]
*496 la_oenb[97]
*497 la_oenb[98]
*498 la_oenb[99]
*499 la_oenb[9]
*502 wb_clk_i
*503 wb_rst_i
*504 wbs_ack_o
*505 wbs_adr_i[0]
*506 wbs_adr_i[10]
*507 wbs_adr_i[11]
*508 wbs_adr_i[12]
*509 wbs_adr_i[13]
*510 wbs_adr_i[14]
*511 wbs_adr_i[15]
*512 wbs_adr_i[16]
*513 wbs_adr_i[17]
*514 wbs_adr_i[18]
*515 wbs_adr_i[19]
*516 wbs_adr_i[1]
*517 wbs_adr_i[20]
*518 wbs_adr_i[21]
*519 wbs_adr_i[22]
*520 wbs_adr_i[23]
*521 wbs_adr_i[24]
*522 wbs_adr_i[25]
*523 wbs_adr_i[26]
*524 wbs_adr_i[27]
*525 wbs_adr_i[28]
*526 wbs_adr_i[29]
*527 wbs_adr_i[2]
*528 wbs_adr_i[30]
*529 wbs_adr_i[31]
*530 wbs_adr_i[3]
*531 wbs_adr_i[4]
*532 wbs_adr_i[5]
*533 wbs_adr_i[6]
*534 wbs_adr_i[7]
*535 wbs_adr_i[8]
*536 wbs_adr_i[9]
*537 wbs_cyc_i
*538 wbs_dat_i[0]
*539 wbs_dat_i[10]
*540 wbs_dat_i[11]
*541 wbs_dat_i[12]
*542 wbs_dat_i[13]
*543 wbs_dat_i[14]
*544 wbs_dat_i[15]
*545 wbs_dat_i[16]
*546 wbs_dat_i[17]
*547 wbs_dat_i[18]
*548 wbs_dat_i[19]
*549 wbs_dat_i[1]
*550 wbs_dat_i[20]
*551 wbs_dat_i[21]
*552 wbs_dat_i[22]
*553 wbs_dat_i[23]
*554 wbs_dat_i[24]
*555 wbs_dat_i[25]
*556 wbs_dat_i[26]
*557 wbs_dat_i[27]
*558 wbs_dat_i[28]
*559 wbs_dat_i[29]
*560 wbs_dat_i[2]
*561 wbs_dat_i[30]
*562 wbs_dat_i[31]
*563 wbs_dat_i[3]
*564 wbs_dat_i[4]
*565 wbs_dat_i[5]
*566 wbs_dat_i[6]
*567 wbs_dat_i[7]
*568 wbs_dat_i[8]
*569 wbs_dat_i[9]
*570 wbs_dat_o[0]
*571 wbs_dat_o[10]
*572 wbs_dat_o[11]
*573 wbs_dat_o[12]
*574 wbs_dat_o[13]
*575 wbs_dat_o[14]
*576 wbs_dat_o[15]
*577 wbs_dat_o[16]
*578 wbs_dat_o[17]
*579 wbs_dat_o[18]
*580 wbs_dat_o[19]
*581 wbs_dat_o[1]
*582 wbs_dat_o[20]
*583 wbs_dat_o[21]
*584 wbs_dat_o[22]
*585 wbs_dat_o[23]
*586 wbs_dat_o[24]
*587 wbs_dat_o[25]
*588 wbs_dat_o[26]
*589 wbs_dat_o[27]
*590 wbs_dat_o[28]
*591 wbs_dat_o[29]
*592 wbs_dat_o[2]
*593 wbs_dat_o[30]
*594 wbs_dat_o[31]
*595 wbs_dat_o[3]
*596 wbs_dat_o[4]
*597 wbs_dat_o[5]
*598 wbs_dat_o[6]
*599 wbs_dat_o[7]
*600 wbs_dat_o[8]
*601 wbs_dat_o[9]
*602 wbs_sel_i[0]
*603 wbs_sel_i[1]
*604 wbs_sel_i[2]
*605 wbs_sel_i[3]
*606 wbs_stb_i
*607 wbs_we_i
*608 _000_
*609 _001_
*610 _002_
*611 _003_
*612 _004_
*613 _005_
*614 _006_
*615 _007_
*616 _008_
*617 _009_
*618 _010_
*619 _011_
*620 _012_
*621 _013_
*622 _014_
*623 _015_
*624 _016_
*625 _017_
*626 _018_
*627 _019_
*628 _020_
*629 _021_
*630 _022_
*631 _023_
*632 _024_
*633 _025_
*634 _026_
*635 _027_
*636 _028_
*637 _029_
*638 _030_
*639 _031_
*640 _032_
*641 _033_
*642 _034_
*643 _035_
*644 _036_
*645 _037_
*646 _038_
*647 _039_
*648 _040_
*649 _041_
*650 _042_
*651 _043_
*652 _044_
*653 _045_
*654 _046_
*655 _047_
*656 _048_
*657 _049_
*658 _050_
*659 _051_
*660 _052_
*661 _053_
*662 _054_
*663 _055_
*664 _056_
*665 _057_
*666 _058_
*667 _059_
*668 _060_
*669 _061_
*670 _062_
*671 _063_
*672 _064_
*673 _065_
*674 _066_
*675 _067_
*676 _068_
*677 _069_
*678 _070_
*679 _071_
*680 _072_
*681 _073_
*682 _074_
*683 _075_
*684 _076_
*685 _077_
*686 _078_
*687 _079_
*688 _080_
*689 _081_
*690 _082_
*691 _083_
*692 _084_
*693 _085_
*694 _086_
*695 _087_
*696 _088_
*697 _089_
*698 _090_
*699 _091_
*700 _092_
*701 _093_
*702 _094_
*703 _095_
*704 _096_
*705 _097_
*706 _098_
*707 _099_
*708 _100_
*709 _101_
*710 _102_
*711 _103_
*712 _104_
*713 _105_
*714 _106_
*715 _107_
*716 _108_
*717 _109_
*718 _110_
*719 _111_
*720 _112_
*721 _113_
*722 _114_
*723 _115_
*724 _116_
*725 _117_
*726 _118_
*727 _119_
*728 _120_
*729 _121_
*730 _122_
*731 _123_
*732 _124_
*733 _125_
*734 _126_
*735 _127_
*736 _128_
*737 _129_
*738 _130_
*739 _131_
*740 _132_
*741 _133_
*742 _134_
*743 _135_
*744 _136_
*745 _137_
*746 _138_
*747 _139_
*748 _140_
*749 _141_
*750 _142_
*751 _143_
*752 _144_
*753 _145_
*754 _146_
*755 _147_
*756 _148_
*757 _149_
*758 _150_
*759 _151_
*760 _152_
*761 _153_
*762 _154_
*763 _155_
*764 _156_
*765 _157_
*766 _158_
*767 _159_
*768 _160_
*769 _161_
*770 _162_
*771 _163_
*772 _164_
*773 _165_
*774 _166_
*775 _167_
*776 _168_
*777 _169_
*778 _595_
*779 _596_
*780 _597_
*781 _598_
*782 _599_
*783 _600_
*784 _601_
*785 _602_
*786 _603_
*787 _604_
*788 _605_
*789 _606_
*790 _607_
*791 _608_
*792 active
*793 ANTENNA__172__A
*794 ANTENNA__197__A
*795 ANTENNA__203__A
*796 ANTENNA__210__A
*797 ANTENNA__211__A_N
*798 ANTENNA__211__B
*799 ANTENNA__212__A1
*800 ANTENNA__212__A2
*801 ANTENNA__213__A
*802 ANTENNA__214__A
*803 ANTENNA__215__A1
*804 ANTENNA__216__A
*805 ANTENNA__217__A
*806 ANTENNA__218__A
*807 ANTENNA__220__A1
*808 ANTENNA__220__B1_N
*809 ANTENNA__221__B1
*810 ANTENNA__222__A
*811 ANTENNA__223__A
*812 ANTENNA__226__A
*813 ANTENNA__228__A
*814 ANTENNA__231__A1
*815 ANTENNA__233__A
*816 ANTENNA__236__A
*817 ANTENNA__237__A_N
*818 ANTENNA__237__B
*819 ANTENNA__238__A1
*820 ANTENNA__238__A2
*821 ANTENNA__239__A
*822 ANTENNA__240__A
*823 ANTENNA__241__A1
*824 ANTENNA__242__A
*825 ANTENNA__243__A
*826 ANTENNA__244__A
*827 ANTENNA__246__A1
*828 ANTENNA__246__B1_N
*829 ANTENNA__247__A1
*830 ANTENNA__247__B1_N
*831 ANTENNA__248__B1
*832 ANTENNA__249__A
*833 ANTENNA__250__A
*834 ANTENNA__253__A
*835 ANTENNA__255__A
*836 ANTENNA__258__A1
*837 ANTENNA__260__A
*838 ANTENNA__265__B1
*839 ANTENNA__266__A
*840 ANTENNA__267__A2_N
*841 ANTENNA__267__B2
*842 ANTENNA__268__A2
*843 ANTENNA__269__A3
*844 ANTENNA__270__A
*845 ANTENNA__271__A2_N
*846 ANTENNA__271__B2
*847 ANTENNA__272__A2
*848 ANTENNA__273__A3
*849 ANTENNA__278__A
*850 ANTENNA__284__A
*851 ANTENNA__285__A2
*852 ANTENNA__285__B1
*853 ANTENNA__290__A
*854 ANTENNA__291__A2
*855 ANTENNA__291__B1
*856 ANTENNA__294__B
*857 ANTENNA__300__A2_N
*858 ANTENNA__301__A2
*859 ANTENNA__301__B1
*860 ANTENNA__302__B
*861 ANTENNA__303__A
*862 ANTENNA__305__B1
*863 ANTENNA__306__A1
*864 ANTENNA__307__A2
*865 ANTENNA__307__B1
*866 ANTENNA__308__B
*867 ANTENNA__309__A
*868 ANTENNA__325__A1
*869 ANTENNA__325__B1
*870 ANTENNA__326__A1
*871 ANTENNA__332__A1
*872 ANTENNA__332__B1
*873 ANTENNA__333__A1
*874 ANTENNA__336__C1
*875 FILLER_0_103
*876 FILLER_0_110
*877 FILLER_0_113
*878 FILLER_0_12
*879 FILLER_0_124
*880 FILLER_0_131
*881 FILLER_0_138
*882 FILLER_0_141
*883 FILLER_0_152
*884 FILLER_0_159
*885 FILLER_0_166
*886 FILLER_0_169
*887 FILLER_0_180
*888 FILLER_0_187
*889 FILLER_0_19
*890 FILLER_0_194
*891 FILLER_0_197
*892 FILLER_0_208
*893 FILLER_0_215
*894 FILLER_0_222
*895 FILLER_0_225
*896 FILLER_0_230
*897 FILLER_0_243
*898 FILLER_0_250
*899 FILLER_0_253
*900 FILLER_0_258
*901 FILLER_0_26
*902 FILLER_0_271
*903 FILLER_0_278
*904 FILLER_0_281
*905 FILLER_0_286
*906 FILLER_0_29
*907 FILLER_0_293
*908 FILLER_0_3
*909 FILLER_0_300
*910 FILLER_0_309
*911 FILLER_0_314
*912 FILLER_0_321
*913 FILLER_0_328
*914 FILLER_0_337
*915 FILLER_0_342
*916 FILLER_0_349
*917 FILLER_0_356
*918 FILLER_0_365
*919 FILLER_0_370
*920 FILLER_0_377
*921 FILLER_0_384
*922 FILLER_0_393
*923 FILLER_0_398
*924 FILLER_0_40
*925 FILLER_0_405
*926 FILLER_0_412
*927 FILLER_0_421
*928 FILLER_0_426
*929 FILLER_0_433
*930 FILLER_0_440
*931 FILLER_0_449
*932 FILLER_0_454
*933 FILLER_0_461
*934 FILLER_0_468
*935 FILLER_0_47
*936 FILLER_0_477
*937 FILLER_0_482
*938 FILLER_0_489
*939 FILLER_0_496
*940 FILLER_0_505
*941 FILLER_0_510
*942 FILLER_0_54
*943 FILLER_0_57
*944 FILLER_0_68
*945 FILLER_0_75
*946 FILLER_0_82
*947 FILLER_0_85
*948 FILLER_0_96
*949 FILLER_10_109
*950 FILLER_10_121
*951 FILLER_10_133
*952 FILLER_10_139
*953 FILLER_10_141
*954 FILLER_10_15
*955 FILLER_10_153
*956 FILLER_10_165
*957 FILLER_10_177
*958 FILLER_10_189
*959 FILLER_10_195
*960 FILLER_10_197
*961 FILLER_10_209
*962 FILLER_10_221
*963 FILLER_10_233
*964 FILLER_10_245
*965 FILLER_10_251
*966 FILLER_10_253
*967 FILLER_10_265
*968 FILLER_10_27
*969 FILLER_10_277
*970 FILLER_10_289
*971 FILLER_10_29
*972 FILLER_10_3
*973 FILLER_10_301
*974 FILLER_10_307
*975 FILLER_10_309
*976 FILLER_10_321
*977 FILLER_10_333
*978 FILLER_10_345
*979 FILLER_10_357
*980 FILLER_10_363
*981 FILLER_10_365
*982 FILLER_10_377
*983 FILLER_10_389
*984 FILLER_10_401
*985 FILLER_10_41
*986 FILLER_10_413
*987 FILLER_10_419
*988 FILLER_10_421
*989 FILLER_10_433
*990 FILLER_10_445
*991 FILLER_10_457
*992 FILLER_10_469
*993 FILLER_10_475
*994 FILLER_10_477
*995 FILLER_10_489
*996 FILLER_10_501
*997 FILLER_10_513
*998 FILLER_10_53
*999 FILLER_10_65
*1000 FILLER_10_77
*1001 FILLER_10_83
*1002 FILLER_10_85
*1003 FILLER_10_97
*1004 FILLER_11_105
*1005 FILLER_11_111
*1006 FILLER_11_113
*1007 FILLER_11_125
*1008 FILLER_11_137
*1009 FILLER_11_149
*1010 FILLER_11_15
*1011 FILLER_11_161
*1012 FILLER_11_167
*1013 FILLER_11_169
*1014 FILLER_11_181
*1015 FILLER_11_193
*1016 FILLER_11_205
*1017 FILLER_11_217
*1018 FILLER_11_223
*1019 FILLER_11_225
*1020 FILLER_11_237
*1021 FILLER_11_249
*1022 FILLER_11_261
*1023 FILLER_11_27
*1024 FILLER_11_273
*1025 FILLER_11_279
*1026 FILLER_11_281
*1027 FILLER_11_293
*1028 FILLER_11_3
*1029 FILLER_11_305
*1030 FILLER_11_317
*1031 FILLER_11_329
*1032 FILLER_11_335
*1033 FILLER_11_337
*1034 FILLER_11_349
*1035 FILLER_11_361
*1036 FILLER_11_373
*1037 FILLER_11_385
*1038 FILLER_11_39
*1039 FILLER_11_391
*1040 FILLER_11_393
*1041 FILLER_11_405
*1042 FILLER_11_417
*1043 FILLER_11_429
*1044 FILLER_11_441
*1045 FILLER_11_447
*1046 FILLER_11_449
*1047 FILLER_11_461
*1048 FILLER_11_473
*1049 FILLER_11_485
*1050 FILLER_11_497
*1051 FILLER_11_503
*1052 FILLER_11_505
*1053 FILLER_11_51
*1054 FILLER_11_513
*1055 FILLER_11_55
*1056 FILLER_11_57
*1057 FILLER_11_69
*1058 FILLER_11_81
*1059 FILLER_11_93
*1060 FILLER_12_109
*1061 FILLER_12_121
*1062 FILLER_12_133
*1063 FILLER_12_139
*1064 FILLER_12_141
*1065 FILLER_12_15
*1066 FILLER_12_153
*1067 FILLER_12_165
*1068 FILLER_12_177
*1069 FILLER_12_189
*1070 FILLER_12_195
*1071 FILLER_12_197
*1072 FILLER_12_209
*1073 FILLER_12_221
*1074 FILLER_12_233
*1075 FILLER_12_245
*1076 FILLER_12_251
*1077 FILLER_12_253
*1078 FILLER_12_265
*1079 FILLER_12_27
*1080 FILLER_12_277
*1081 FILLER_12_289
*1082 FILLER_12_29
*1083 FILLER_12_3
*1084 FILLER_12_301
*1085 FILLER_12_307
*1086 FILLER_12_309
*1087 FILLER_12_321
*1088 FILLER_12_333
*1089 FILLER_12_345
*1090 FILLER_12_357
*1091 FILLER_12_363
*1092 FILLER_12_365
*1093 FILLER_12_377
*1094 FILLER_12_389
*1095 FILLER_12_401
*1096 FILLER_12_41
*1097 FILLER_12_413
*1098 FILLER_12_419
*1099 FILLER_12_421
*1100 FILLER_12_433
*1101 FILLER_12_445
*1102 FILLER_12_457
*1103 FILLER_12_469
*1104 FILLER_12_475
*1105 FILLER_12_477
*1106 FILLER_12_489
*1107 FILLER_12_501
*1108 FILLER_12_513
*1109 FILLER_12_53
*1110 FILLER_12_65
*1111 FILLER_12_77
*1112 FILLER_12_83
*1113 FILLER_12_85
*1114 FILLER_12_97
*1115 FILLER_13_105
*1116 FILLER_13_111
*1117 FILLER_13_113
*1118 FILLER_13_125
*1119 FILLER_13_137
*1120 FILLER_13_149
*1121 FILLER_13_15
*1122 FILLER_13_161
*1123 FILLER_13_167
*1124 FILLER_13_169
*1125 FILLER_13_181
*1126 FILLER_13_193
*1127 FILLER_13_205
*1128 FILLER_13_217
*1129 FILLER_13_223
*1130 FILLER_13_225
*1131 FILLER_13_237
*1132 FILLER_13_249
*1133 FILLER_13_261
*1134 FILLER_13_27
*1135 FILLER_13_273
*1136 FILLER_13_279
*1137 FILLER_13_281
*1138 FILLER_13_293
*1139 FILLER_13_3
*1140 FILLER_13_305
*1141 FILLER_13_317
*1142 FILLER_13_329
*1143 FILLER_13_335
*1144 FILLER_13_337
*1145 FILLER_13_349
*1146 FILLER_13_361
*1147 FILLER_13_373
*1148 FILLER_13_385
*1149 FILLER_13_39
*1150 FILLER_13_391
*1151 FILLER_13_393
*1152 FILLER_13_405
*1153 FILLER_13_417
*1154 FILLER_13_429
*1155 FILLER_13_441
*1156 FILLER_13_447
*1157 FILLER_13_449
*1158 FILLER_13_461
*1159 FILLER_13_473
*1160 FILLER_13_485
*1161 FILLER_13_497
*1162 FILLER_13_503
*1163 FILLER_13_505
*1164 FILLER_13_51
*1165 FILLER_13_513
*1166 FILLER_13_55
*1167 FILLER_13_57
*1168 FILLER_13_69
*1169 FILLER_13_81
*1170 FILLER_13_93
*1171 FILLER_14_109
*1172 FILLER_14_121
*1173 FILLER_14_133
*1174 FILLER_14_139
*1175 FILLER_14_141
*1176 FILLER_14_15
*1177 FILLER_14_153
*1178 FILLER_14_165
*1179 FILLER_14_177
*1180 FILLER_14_189
*1181 FILLER_14_195
*1182 FILLER_14_197
*1183 FILLER_14_209
*1184 FILLER_14_221
*1185 FILLER_14_233
*1186 FILLER_14_245
*1187 FILLER_14_251
*1188 FILLER_14_253
*1189 FILLER_14_265
*1190 FILLER_14_27
*1191 FILLER_14_277
*1192 FILLER_14_289
*1193 FILLER_14_29
*1194 FILLER_14_3
*1195 FILLER_14_301
*1196 FILLER_14_307
*1197 FILLER_14_309
*1198 FILLER_14_321
*1199 FILLER_14_333
*1200 FILLER_14_345
*1201 FILLER_14_357
*1202 FILLER_14_363
*1203 FILLER_14_365
*1204 FILLER_14_377
*1205 FILLER_14_389
*1206 FILLER_14_401
*1207 FILLER_14_41
*1208 FILLER_14_413
*1209 FILLER_14_419
*1210 FILLER_14_421
*1211 FILLER_14_433
*1212 FILLER_14_445
*1213 FILLER_14_457
*1214 FILLER_14_469
*1215 FILLER_14_475
*1216 FILLER_14_477
*1217 FILLER_14_489
*1218 FILLER_14_501
*1219 FILLER_14_513
*1220 FILLER_14_53
*1221 FILLER_14_65
*1222 FILLER_14_77
*1223 FILLER_14_83
*1224 FILLER_14_85
*1225 FILLER_14_97
*1226 FILLER_15_105
*1227 FILLER_15_111
*1228 FILLER_15_113
*1229 FILLER_15_125
*1230 FILLER_15_137
*1231 FILLER_15_149
*1232 FILLER_15_15
*1233 FILLER_15_161
*1234 FILLER_15_167
*1235 FILLER_15_169
*1236 FILLER_15_181
*1237 FILLER_15_193
*1238 FILLER_15_205
*1239 FILLER_15_217
*1240 FILLER_15_223
*1241 FILLER_15_225
*1242 FILLER_15_237
*1243 FILLER_15_249
*1244 FILLER_15_261
*1245 FILLER_15_27
*1246 FILLER_15_273
*1247 FILLER_15_279
*1248 FILLER_15_281
*1249 FILLER_15_293
*1250 FILLER_15_3
*1251 FILLER_15_305
*1252 FILLER_15_317
*1253 FILLER_15_329
*1254 FILLER_15_335
*1255 FILLER_15_337
*1256 FILLER_15_349
*1257 FILLER_15_361
*1258 FILLER_15_373
*1259 FILLER_15_385
*1260 FILLER_15_39
*1261 FILLER_15_391
*1262 FILLER_15_393
*1263 FILLER_15_405
*1264 FILLER_15_417
*1265 FILLER_15_429
*1266 FILLER_15_441
*1267 FILLER_15_447
*1268 FILLER_15_449
*1269 FILLER_15_461
*1270 FILLER_15_473
*1271 FILLER_15_485
*1272 FILLER_15_497
*1273 FILLER_15_503
*1274 FILLER_15_505
*1275 FILLER_15_51
*1276 FILLER_15_513
*1277 FILLER_15_55
*1278 FILLER_15_57
*1279 FILLER_15_69
*1280 FILLER_15_81
*1281 FILLER_15_93
*1282 FILLER_16_109
*1283 FILLER_16_121
*1284 FILLER_16_133
*1285 FILLER_16_139
*1286 FILLER_16_141
*1287 FILLER_16_15
*1288 FILLER_16_153
*1289 FILLER_16_165
*1290 FILLER_16_177
*1291 FILLER_16_189
*1292 FILLER_16_195
*1293 FILLER_16_197
*1294 FILLER_16_209
*1295 FILLER_16_221
*1296 FILLER_16_233
*1297 FILLER_16_245
*1298 FILLER_16_251
*1299 FILLER_16_253
*1300 FILLER_16_265
*1301 FILLER_16_27
*1302 FILLER_16_277
*1303 FILLER_16_289
*1304 FILLER_16_29
*1305 FILLER_16_3
*1306 FILLER_16_301
*1307 FILLER_16_307
*1308 FILLER_16_309
*1309 FILLER_16_321
*1310 FILLER_16_333
*1311 FILLER_16_345
*1312 FILLER_16_357
*1313 FILLER_16_363
*1314 FILLER_16_365
*1315 FILLER_16_377
*1316 FILLER_16_389
*1317 FILLER_16_401
*1318 FILLER_16_41
*1319 FILLER_16_413
*1320 FILLER_16_419
*1321 FILLER_16_421
*1322 FILLER_16_433
*1323 FILLER_16_445
*1324 FILLER_16_457
*1325 FILLER_16_469
*1326 FILLER_16_475
*1327 FILLER_16_477
*1328 FILLER_16_489
*1329 FILLER_16_501
*1330 FILLER_16_513
*1331 FILLER_16_53
*1332 FILLER_16_65
*1333 FILLER_16_77
*1334 FILLER_16_83
*1335 FILLER_16_85
*1336 FILLER_16_97
*1337 FILLER_17_105
*1338 FILLER_17_111
*1339 FILLER_17_113
*1340 FILLER_17_125
*1341 FILLER_17_137
*1342 FILLER_17_149
*1343 FILLER_17_15
*1344 FILLER_17_161
*1345 FILLER_17_167
*1346 FILLER_17_169
*1347 FILLER_17_181
*1348 FILLER_17_193
*1349 FILLER_17_205
*1350 FILLER_17_217
*1351 FILLER_17_223
*1352 FILLER_17_225
*1353 FILLER_17_237
*1354 FILLER_17_249
*1355 FILLER_17_261
*1356 FILLER_17_27
*1357 FILLER_17_273
*1358 FILLER_17_279
*1359 FILLER_17_281
*1360 FILLER_17_293
*1361 FILLER_17_3
*1362 FILLER_17_305
*1363 FILLER_17_317
*1364 FILLER_17_329
*1365 FILLER_17_335
*1366 FILLER_17_337
*1367 FILLER_17_349
*1368 FILLER_17_361
*1369 FILLER_17_373
*1370 FILLER_17_385
*1371 FILLER_17_39
*1372 FILLER_17_391
*1373 FILLER_17_393
*1374 FILLER_17_405
*1375 FILLER_17_417
*1376 FILLER_17_429
*1377 FILLER_17_441
*1378 FILLER_17_447
*1379 FILLER_17_449
*1380 FILLER_17_461
*1381 FILLER_17_473
*1382 FILLER_17_485
*1383 FILLER_17_497
*1384 FILLER_17_503
*1385 FILLER_17_505
*1386 FILLER_17_51
*1387 FILLER_17_513
*1388 FILLER_17_55
*1389 FILLER_17_57
*1390 FILLER_17_69
*1391 FILLER_17_81
*1392 FILLER_17_93
*1393 FILLER_18_109
*1394 FILLER_18_121
*1395 FILLER_18_133
*1396 FILLER_18_139
*1397 FILLER_18_141
*1398 FILLER_18_15
*1399 FILLER_18_153
*1400 FILLER_18_165
*1401 FILLER_18_177
*1402 FILLER_18_189
*1403 FILLER_18_195
*1404 FILLER_18_197
*1405 FILLER_18_209
*1406 FILLER_18_221
*1407 FILLER_18_233
*1408 FILLER_18_245
*1409 FILLER_18_251
*1410 FILLER_18_253
*1411 FILLER_18_265
*1412 FILLER_18_27
*1413 FILLER_18_277
*1414 FILLER_18_289
*1415 FILLER_18_29
*1416 FILLER_18_3
*1417 FILLER_18_301
*1418 FILLER_18_307
*1419 FILLER_18_309
*1420 FILLER_18_321
*1421 FILLER_18_333
*1422 FILLER_18_345
*1423 FILLER_18_357
*1424 FILLER_18_363
*1425 FILLER_18_365
*1426 FILLER_18_377
*1427 FILLER_18_389
*1428 FILLER_18_401
*1429 FILLER_18_41
*1430 FILLER_18_413
*1431 FILLER_18_419
*1432 FILLER_18_421
*1433 FILLER_18_433
*1434 FILLER_18_445
*1435 FILLER_18_457
*1436 FILLER_18_469
*1437 FILLER_18_475
*1438 FILLER_18_477
*1439 FILLER_18_489
*1440 FILLER_18_501
*1441 FILLER_18_513
*1442 FILLER_18_53
*1443 FILLER_18_65
*1444 FILLER_18_77
*1445 FILLER_18_83
*1446 FILLER_18_85
*1447 FILLER_18_97
*1448 FILLER_19_105
*1449 FILLER_19_111
*1450 FILLER_19_113
*1451 FILLER_19_125
*1452 FILLER_19_137
*1453 FILLER_19_149
*1454 FILLER_19_15
*1455 FILLER_19_161
*1456 FILLER_19_167
*1457 FILLER_19_169
*1458 FILLER_19_181
*1459 FILLER_19_193
*1460 FILLER_19_205
*1461 FILLER_19_217
*1462 FILLER_19_223
*1463 FILLER_19_225
*1464 FILLER_19_237
*1465 FILLER_19_249
*1466 FILLER_19_261
*1467 FILLER_19_27
*1468 FILLER_19_273
*1469 FILLER_19_279
*1470 FILLER_19_281
*1471 FILLER_19_293
*1472 FILLER_19_3
*1473 FILLER_19_305
*1474 FILLER_19_317
*1475 FILLER_19_329
*1476 FILLER_19_335
*1477 FILLER_19_337
*1478 FILLER_19_349
*1479 FILLER_19_361
*1480 FILLER_19_373
*1481 FILLER_19_385
*1482 FILLER_19_39
*1483 FILLER_19_391
*1484 FILLER_19_393
*1485 FILLER_19_405
*1486 FILLER_19_417
*1487 FILLER_19_429
*1488 FILLER_19_441
*1489 FILLER_19_447
*1490 FILLER_19_449
*1491 FILLER_19_461
*1492 FILLER_19_473
*1493 FILLER_19_485
*1494 FILLER_19_497
*1495 FILLER_19_503
*1496 FILLER_19_505
*1497 FILLER_19_51
*1498 FILLER_19_513
*1499 FILLER_19_55
*1500 FILLER_19_57
*1501 FILLER_19_69
*1502 FILLER_19_81
*1503 FILLER_19_93
*1504 FILLER_1_103
*1505 FILLER_1_110
*1506 FILLER_1_113
*1507 FILLER_1_124
*1508 FILLER_1_131
*1509 FILLER_1_138
*1510 FILLER_1_145
*1511 FILLER_1_15
*1512 FILLER_1_152
*1513 FILLER_1_159
*1514 FILLER_1_166
*1515 FILLER_1_169
*1516 FILLER_1_180
*1517 FILLER_1_187
*1518 FILLER_1_19
*1519 FILLER_1_194
*1520 FILLER_1_201
*1521 FILLER_1_208
*1522 FILLER_1_221
*1523 FILLER_1_225
*1524 FILLER_1_242
*1525 FILLER_1_257
*1526 FILLER_1_26
*1527 FILLER_1_270
*1528 FILLER_1_274
*1529 FILLER_1_278
*1530 FILLER_1_281
*1531 FILLER_1_292
*1532 FILLER_1_3
*1533 FILLER_1_305
*1534 FILLER_1_318
*1535 FILLER_1_325
*1536 FILLER_1_33
*1537 FILLER_1_332
*1538 FILLER_1_337
*1539 FILLER_1_342
*1540 FILLER_1_349
*1541 FILLER_1_356
*1542 FILLER_1_363
*1543 FILLER_1_370
*1544 FILLER_1_377
*1545 FILLER_1_384
*1546 FILLER_1_393
*1547 FILLER_1_398
*1548 FILLER_1_40
*1549 FILLER_1_405
*1550 FILLER_1_412
*1551 FILLER_1_419
*1552 FILLER_1_426
*1553 FILLER_1_433
*1554 FILLER_1_440
*1555 FILLER_1_449
*1556 FILLER_1_454
*1557 FILLER_1_461
*1558 FILLER_1_468
*1559 FILLER_1_47
*1560 FILLER_1_475
*1561 FILLER_1_482
*1562 FILLER_1_489
*1563 FILLER_1_496
*1564 FILLER_1_505
*1565 FILLER_1_510
*1566 FILLER_1_54
*1567 FILLER_1_57
*1568 FILLER_1_68
*1569 FILLER_1_75
*1570 FILLER_1_82
*1571 FILLER_1_89
*1572 FILLER_1_96
*1573 FILLER_20_109
*1574 FILLER_20_121
*1575 FILLER_20_133
*1576 FILLER_20_139
*1577 FILLER_20_141
*1578 FILLER_20_15
*1579 FILLER_20_153
*1580 FILLER_20_165
*1581 FILLER_20_177
*1582 FILLER_20_189
*1583 FILLER_20_195
*1584 FILLER_20_197
*1585 FILLER_20_209
*1586 FILLER_20_221
*1587 FILLER_20_233
*1588 FILLER_20_245
*1589 FILLER_20_251
*1590 FILLER_20_253
*1591 FILLER_20_265
*1592 FILLER_20_27
*1593 FILLER_20_277
*1594 FILLER_20_289
*1595 FILLER_20_29
*1596 FILLER_20_3
*1597 FILLER_20_301
*1598 FILLER_20_307
*1599 FILLER_20_309
*1600 FILLER_20_321
*1601 FILLER_20_333
*1602 FILLER_20_345
*1603 FILLER_20_357
*1604 FILLER_20_363
*1605 FILLER_20_365
*1606 FILLER_20_377
*1607 FILLER_20_389
*1608 FILLER_20_401
*1609 FILLER_20_41
*1610 FILLER_20_413
*1611 FILLER_20_419
*1612 FILLER_20_421
*1613 FILLER_20_433
*1614 FILLER_20_445
*1615 FILLER_20_457
*1616 FILLER_20_469
*1617 FILLER_20_475
*1618 FILLER_20_477
*1619 FILLER_20_489
*1620 FILLER_20_501
*1621 FILLER_20_513
*1622 FILLER_20_53
*1623 FILLER_20_65
*1624 FILLER_20_77
*1625 FILLER_20_83
*1626 FILLER_20_85
*1627 FILLER_20_97
*1628 FILLER_21_105
*1629 FILLER_21_111
*1630 FILLER_21_113
*1631 FILLER_21_125
*1632 FILLER_21_137
*1633 FILLER_21_149
*1634 FILLER_21_15