*SPEF "ieee 1481-1999"
*DESIGN "user_project_wrapper"
*DATE "11:11:11 Fri 11 11, 1111"
*VENDOR "OpenRCX"
*PROGRAM "Parallel Extraction"
*VERSION "1.0"
*DESIGN_FLOW "NAME_SCOPE LOCAL" "PIN_CAP NONE"
*DIVIDER /
*DELIMITER :
*BUS_DELIMITER []
*T_UNIT 1 NS
*C_UNIT 1 PF
*R_UNIT 1 OHM
*L_UNIT 1 HENRY

*NAME_MAP
*1 analog_io[0]
*2 analog_io[10]
*3 analog_io[11]
*4 analog_io[12]
*5 analog_io[13]
*6 analog_io[14]
*7 analog_io[15]
*8 analog_io[16]
*9 analog_io[17]
*10 analog_io[18]
*11 analog_io[19]
*12 analog_io[1]
*13 analog_io[20]
*14 analog_io[21]
*15 analog_io[22]
*16 analog_io[23]
*17 analog_io[24]
*18 analog_io[25]
*19 analog_io[26]
*20 analog_io[27]
*21 analog_io[28]
*22 analog_io[2]
*23 analog_io[3]
*24 analog_io[4]
*25 analog_io[5]
*26 analog_io[6]
*27 analog_io[7]
*28 analog_io[8]
*29 analog_io[9]
*30 io_in[0]
*31 io_in[10]
*32 io_in[11]
*33 io_in[12]
*34 io_in[13]
*35 io_in[14]
*36 io_in[15]
*37 io_in[16]
*38 io_in[17]
*39 io_in[18]
*40 io_in[19]
*41 io_in[1]
*42 io_in[20]
*43 io_in[21]
*44 io_in[22]
*45 io_in[23]
*46 io_in[24]
*47 io_in[25]
*48 io_in[26]
*49 io_in[27]
*50 io_in[28]
*51 io_in[29]
*52 io_in[2]
*53 io_in[30]
*54 io_in[31]
*55 io_in[32]
*56 io_in[33]
*57 io_in[34]
*58 io_in[35]
*59 io_in[36]
*60 io_in[37]
*61 io_in[3]
*62 io_in[4]
*63 io_in[5]
*64 io_in[6]
*65 io_in[7]
*66 io_in[8]
*67 io_in[9]
*68 io_oeb[0]
*69 io_oeb[10]
*70 io_oeb[11]
*71 io_oeb[12]
*72 io_oeb[13]
*73 io_oeb[14]
*74 io_oeb[15]
*75 io_oeb[16]
*76 io_oeb[17]
*77 io_oeb[18]
*78 io_oeb[19]
*79 io_oeb[1]
*80 io_oeb[20]
*81 io_oeb[21]
*82 io_oeb[22]
*83 io_oeb[23]
*84 io_oeb[24]
*85 io_oeb[25]
*86 io_oeb[26]
*87 io_oeb[27]
*88 io_oeb[28]
*89 io_oeb[29]
*90 io_oeb[2]
*91 io_oeb[30]
*92 io_oeb[31]
*93 io_oeb[32]
*94 io_oeb[33]
*95 io_oeb[34]
*96 io_oeb[35]
*97 io_oeb[36]
*98 io_oeb[37]
*99 io_oeb[3]
*100 io_oeb[4]
*101 io_oeb[5]
*102 io_oeb[6]
*103 io_oeb[7]
*104 io_oeb[8]
*105 io_oeb[9]
*106 io_out[0]
*107 io_out[10]
*108 io_out[11]
*109 io_out[12]
*110 io_out[13]
*111 io_out[14]
*112 io_out[15]
*113 io_out[16]
*114 io_out[17]
*115 io_out[18]
*116 io_out[19]
*117 io_out[1]
*118 io_out[20]
*119 io_out[21]
*120 io_out[22]
*121 io_out[23]
*122 io_out[24]
*123 io_out[25]
*124 io_out[26]
*125 io_out[27]
*126 io_out[28]
*127 io_out[29]
*128 io_out[2]
*129 io_out[30]
*130 io_out[31]
*131 io_out[32]
*132 io_out[33]
*133 io_out[34]
*134 io_out[35]
*135 io_out[36]
*136 io_out[37]
*137 io_out[3]
*138 io_out[4]
*139 io_out[5]
*140 io_out[6]
*141 io_out[7]
*142 io_out[8]
*143 io_out[9]
*144 la_data_in[0]
*145 la_data_in[100]
*146 la_data_in[101]
*147 la_data_in[102]
*148 la_data_in[103]
*149 la_data_in[104]
*150 la_data_in[105]
*151 la_data_in[106]
*152 la_data_in[107]
*153 la_data_in[108]
*154 la_data_in[109]
*155 la_data_in[10]
*156 la_data_in[110]
*157 la_data_in[111]
*158 la_data_in[112]
*159 la_data_in[113]
*160 la_data_in[114]
*161 la_data_in[115]
*162 la_data_in[116]
*163 la_data_in[117]
*164 la_data_in[118]
*165 la_data_in[119]
*166 la_data_in[11]
*167 la_data_in[120]
*168 la_data_in[121]
*169 la_data_in[122]
*170 la_data_in[123]
*171 la_data_in[124]
*172 la_data_in[125]
*173 la_data_in[126]
*174 la_data_in[127]
*175 la_data_in[12]
*176 la_data_in[13]
*177 la_data_in[14]
*178 la_data_in[15]
*179 la_data_in[16]
*180 la_data_in[17]
*181 la_data_in[18]
*182 la_data_in[19]
*183 la_data_in[1]
*184 la_data_in[20]
*185 la_data_in[21]
*186 la_data_in[22]
*187 la_data_in[23]
*188 la_data_in[24]
*189 la_data_in[25]
*190 la_data_in[26]
*191 la_data_in[27]
*192 la_data_in[28]
*193 la_data_in[29]
*194 la_data_in[2]
*195 la_data_in[30]
*196 la_data_in[31]
*197 la_data_in[32]
*198 la_data_in[33]
*199 la_data_in[34]
*200 la_data_in[35]
*201 la_data_in[36]
*202 la_data_in[37]
*203 la_data_in[38]
*204 la_data_in[39]
*205 la_data_in[3]
*206 la_data_in[40]
*207 la_data_in[41]
*208 la_data_in[42]
*209 la_data_in[43]
*210 la_data_in[44]
*211 la_data_in[45]
*212 la_data_in[46]
*213 la_data_in[47]
*214 la_data_in[48]
*215 la_data_in[49]
*216 la_data_in[4]
*217 la_data_in[50]
*218 la_data_in[51]
*219 la_data_in[52]
*220 la_data_in[53]
*221 la_data_in[54]
*222 la_data_in[55]
*223 la_data_in[56]
*224 la_data_in[57]
*225 la_data_in[58]
*226 la_data_in[59]
*227 la_data_in[5]
*228 la_data_in[60]
*229 la_data_in[61]
*230 la_data_in[62]
*231 la_data_in[63]
*232 la_data_in[64]
*233 la_data_in[65]
*234 la_data_in[66]
*235 la_data_in[67]
*236 la_data_in[68]
*237 la_data_in[69]
*238 la_data_in[6]
*239 la_data_in[70]
*240 la_data_in[71]
*241 la_data_in[72]
*242 la_data_in[73]
*243 la_data_in[74]
*244 la_data_in[75]
*245 la_data_in[76]
*246 la_data_in[77]
*247 la_data_in[78]
*248 la_data_in[79]
*249 la_data_in[7]
*250 la_data_in[80]
*251 la_data_in[81]
*252 la_data_in[82]
*253 la_data_in[83]
*254 la_data_in[84]
*255 la_data_in[85]
*256 la_data_in[86]
*257 la_data_in[87]
*258 la_data_in[88]
*259 la_data_in[89]
*260 la_data_in[8]
*261 la_data_in[90]
*262 la_data_in[91]
*263 la_data_in[92]
*264 la_data_in[93]
*265 la_data_in[94]
*266 la_data_in[95]
*267 la_data_in[96]
*268 la_data_in[97]
*269 la_data_in[98]
*270 la_data_in[99]
*271 la_data_in[9]
*272 la_data_out[0]
*273 la_data_out[100]
*274 la_data_out[101]
*275 la_data_out[102]
*276 la_data_out[103]
*277 la_data_out[104]
*278 la_data_out[105]
*279 la_data_out[106]
*280 la_data_out[107]
*281 la_data_out[108]
*282 la_data_out[109]
*283 la_data_out[10]
*284 la_data_out[110]
*285 la_data_out[111]
*286 la_data_out[112]
*287 la_data_out[113]
*288 la_data_out[114]
*289 la_data_out[115]
*290 la_data_out[116]
*291 la_data_out[117]
*292 la_data_out[118]
*293 la_data_out[119]
*294 la_data_out[11]
*295 la_data_out[120]
*296 la_data_out[121]
*297 la_data_out[122]
*298 la_data_out[123]
*299 la_data_out[124]
*300 la_data_out[125]
*301 la_data_out[126]
*302 la_data_out[127]
*303 la_data_out[12]
*304 la_data_out[13]
*305 la_data_out[14]
*306 la_data_out[15]
*307 la_data_out[16]
*308 la_data_out[17]
*309 la_data_out[18]
*310 la_data_out[19]
*311 la_data_out[1]
*312 la_data_out[20]
*313 la_data_out[21]
*314 la_data_out[22]
*315 la_data_out[23]
*316 la_data_out[24]
*317 la_data_out[25]
*318 la_data_out[26]
*319 la_data_out[27]
*320 la_data_out[28]
*321 la_data_out[29]
*322 la_data_out[2]
*323 la_data_out[30]
*324 la_data_out[31]
*325 la_data_out[32]
*326 la_data_out[33]
*327 la_data_out[34]
*328 la_data_out[35]
*329 la_data_out[36]
*330 la_data_out[37]
*331 la_data_out[38]
*332 la_data_out[39]
*333 la_data_out[3]
*334 la_data_out[40]
*335 la_data_out[41]
*336 la_data_out[42]
*337 la_data_out[43]
*338 la_data_out[44]
*339 la_data_out[45]
*340 la_data_out[46]
*341 la_data_out[47]
*342 la_data_out[48]
*343 la_data_out[49]
*344 la_data_out[4]
*345 la_data_out[50]
*346 la_data_out[51]
*347 la_data_out[52]
*348 la_data_out[53]
*349 la_data_out[54]
*350 la_data_out[55]
*351 la_data_out[56]
*352 la_data_out[57]
*353 la_data_out[58]
*354 la_data_out[59]
*355 la_data_out[5]
*356 la_data_out[60]
*357 la_data_out[61]
*358 la_data_out[62]
*359 la_data_out[63]
*360 la_data_out[64]
*361 la_data_out[65]
*362 la_data_out[66]
*363 la_data_out[67]
*364 la_data_out[68]
*365 la_data_out[69]
*366 la_data_out[6]
*367 la_data_out[70]
*368 la_data_out[71]
*369 la_data_out[72]
*370 la_data_out[73]
*371 la_data_out[74]
*372 la_data_out[75]
*373 la_data_out[76]
*374 la_data_out[77]
*375 la_data_out[78]
*376 la_data_out[79]
*377 la_data_out[7]
*378 la_data_out[80]
*379 la_data_out[81]
*380 la_data_out[82]
*381 la_data_out[83]
*382 la_data_out[84]
*383 la_data_out[85]
*384 la_data_out[86]
*385 la_data_out[87]
*386 la_data_out[88]
*387 la_data_out[89]
*388 la_data_out[8]
*389 la_data_out[90]
*390 la_data_out[91]
*391 la_data_out[92]
*392 la_data_out[93]
*393 la_data_out[94]
*394 la_data_out[95]
*395 la_data_out[96]
*396 la_data_out[97]
*397 la_data_out[98]
*398 la_data_out[99]
*399 la_data_out[9]
*400 la_oenb[0]
*401 la_oenb[100]
*402 la_oenb[101]
*403 la_oenb[102]
*404 la_oenb[103]
*405 la_oenb[104]
*406 la_oenb[105]
*407 la_oenb[106]
*408 la_oenb[107]
*409 la_oenb[108]
*410 la_oenb[109]
*411 la_oenb[10]
*412 la_oenb[110]
*413 la_oenb[111]
*414 la_oenb[112]
*415 la_oenb[113]
*416 la_oenb[114]
*417 la_oenb[115]
*418 la_oenb[116]
*419 la_oenb[117]
*420 la_oenb[118]
*421 la_oenb[119]
*422 la_oenb[11]
*423 la_oenb[120]
*424 la_oenb[121]
*425 la_oenb[122]
*426 la_oenb[123]
*427 la_oenb[124]
*428 la_oenb[125]
*429 la_oenb[126]
*430 la_oenb[127]
*431 la_oenb[12]
*432 la_oenb[13]
*433 la_oenb[14]
*434 la_oenb[15]
*435 la_oenb[16]
*436 la_oenb[17]
*437 la_oenb[18]
*438 la_oenb[19]
*439 la_oenb[1]
*440 la_oenb[20]
*441 la_oenb[21]
*442 la_oenb[22]
*443 la_oenb[23]
*444 la_oenb[24]
*445 la_oenb[25]
*446 la_oenb[26]
*447 la_oenb[27]
*448 la_oenb[28]
*449 la_oenb[29]
*450 la_oenb[2]
*451 la_oenb[30]
*452 la_oenb[31]
*453 la_oenb[32]
*454 la_oenb[33]
*455 la_oenb[34]
*456 la_oenb[35]
*457 la_oenb[36]
*458 la_oenb[37]
*459 la_oenb[38]
*460 la_oenb[39]
*461 la_oenb[3]
*462 la_oenb[40]
*463 la_oenb[41]
*464 la_oenb[42]
*465 la_oenb[43]
*466 la_oenb[44]
*467 la_oenb[45]
*468 la_oenb[46]
*469 la_oenb[47]
*470 la_oenb[48]
*471 la_oenb[49]
*472 la_oenb[4]
*473 la_oenb[50]
*474 la_oenb[51]
*475 la_oenb[52]
*476 la_oenb[53]
*477 la_oenb[54]
*478 la_oenb[55]
*479 la_oenb[56]
*480 la_oenb[57]
*481 la_oenb[58]
*482 la_oenb[59]
*483 la_oenb[5]
*484 la_oenb[60]
*485 la_oenb[61]
*486 la_oenb[62]
*487 la_oenb[63]
*488 la_oenb[64]
*489 la_oenb[65]
*490 la_oenb[66]
*491 la_oenb[67]
*492 la_oenb[68]
*493 la_oenb[69]
*494 la_oenb[6]
*495 la_oenb[70]
*496 la_oenb[71]
*497 la_oenb[72]
*498 la_oenb[73]
*499 la_oenb[74]
*500 la_oenb[75]
*501 la_oenb[76]
*502 la_oenb[77]
*503 la_oenb[78]
*504 la_oenb[79]
*505 la_oenb[7]
*506 la_oenb[80]
*507 la_oenb[81]
*508 la_oenb[82]
*509 la_oenb[83]
*510 la_oenb[84]
*511 la_oenb[85]
*512 la_oenb[86]
*513 la_oenb[87]
*514 la_oenb[88]
*515 la_oenb[89]
*516 la_oenb[8]
*517 la_oenb[90]
*518 la_oenb[91]
*519 la_oenb[92]
*520 la_oenb[93]
*521 la_oenb[94]
*522 la_oenb[95]
*523 la_oenb[96]
*524 la_oenb[97]
*525 la_oenb[98]
*526 la_oenb[99]
*527 la_oenb[9]
*528 user_clock2
*529 user_irq[0]
*530 user_irq[1]
*531 user_irq[2]
*534 wb_clk_i
*535 wb_rst_i
*536 wbs_ack_o
*537 wbs_adr_i[0]
*538 wbs_adr_i[10]
*539 wbs_adr_i[11]
*540 wbs_adr_i[12]
*541 wbs_adr_i[13]
*542 wbs_adr_i[14]
*543 wbs_adr_i[15]
*544 wbs_adr_i[16]
*545 wbs_adr_i[17]
*546 wbs_adr_i[18]
*547 wbs_adr_i[19]
*548 wbs_adr_i[1]
*549 wbs_adr_i[20]
*550 wbs_adr_i[21]
*551 wbs_adr_i[22]
*552 wbs_adr_i[23]
*553 wbs_adr_i[24]
*554 wbs_adr_i[25]
*555 wbs_adr_i[26]
*556 wbs_adr_i[27]
*557 wbs_adr_i[28]
*558 wbs_adr_i[29]
*559 wbs_adr_i[2]
*560 wbs_adr_i[30]
*561 wbs_adr_i[31]
*562 wbs_adr_i[3]
*563 wbs_adr_i[4]
*564 wbs_adr_i[5]
*565 wbs_adr_i[6]
*566 wbs_adr_i[7]
*567 wbs_adr_i[8]
*568 wbs_adr_i[9]
*569 wbs_cyc_i
*570 wbs_dat_i[0]
*571 wbs_dat_i[10]
*572 wbs_dat_i[11]
*573 wbs_dat_i[12]
*574 wbs_dat_i[13]
*575 wbs_dat_i[14]
*576 wbs_dat_i[15]
*577 wbs_dat_i[16]
*578 wbs_dat_i[17]
*579 wbs_dat_i[18]
*580 wbs_dat_i[19]
*581 wbs_dat_i[1]
*582 wbs_dat_i[20]
*583 wbs_dat_i[21]
*584 wbs_dat_i[22]
*585 wbs_dat_i[23]
*586 wbs_dat_i[24]
*587 wbs_dat_i[25]
*588 wbs_dat_i[26]
*589 wbs_dat_i[27]
*590 wbs_dat_i[28]
*591 wbs_dat_i[29]
*592 wbs_dat_i[2]
*593 wbs_dat_i[30]
*594 wbs_dat_i[31]
*595 wbs_dat_i[3]
*596 wbs_dat_i[4]
*597 wbs_dat_i[5]
*598 wbs_dat_i[6]
*599 wbs_dat_i[7]
*600 wbs_dat_i[8]
*601 wbs_dat_i[9]
*602 wbs_dat_o[0]
*603 wbs_dat_o[10]
*604 wbs_dat_o[11]
*605 wbs_dat_o[12]
*606 wbs_dat_o[13]
*607 wbs_dat_o[14]
*608 wbs_dat_o[15]
*609 wbs_dat_o[16]
*610 wbs_dat_o[17]
*611 wbs_dat_o[18]
*612 wbs_dat_o[19]
*613 wbs_dat_o[1]
*614 wbs_dat_o[20]
*615 wbs_dat_o[21]
*616 wbs_dat_o[22]
*617 wbs_dat_o[23]
*618 wbs_dat_o[24]
*619 wbs_dat_o[25]
*620 wbs_dat_o[26]
*621 wbs_dat_o[27]
*622 wbs_dat_o[28]
*623 wbs_dat_o[29]
*624 wbs_dat_o[2]
*625 wbs_dat_o[30]
*626 wbs_dat_o[31]
*627 wbs_dat_o[3]
*628 wbs_dat_o[4]
*629 wbs_dat_o[5]
*630 wbs_dat_o[6]
*631 wbs_dat_o[7]
*632 wbs_dat_o[8]
*633 wbs_dat_o[9]
*634 wbs_sel_i[0]
*635 wbs_sel_i[1]
*636 wbs_sel_i[2]
*637 wbs_sel_i[3]
*638 wbs_stb_i
*639 wbs_we_i
*640 u_macro_2to3
*641 u_macro_2xdrive
*642 u_macro_and_inv
*643 u_macro_golden

*PORTS
analog_io[0] I
analog_io[10] I
analog_io[11] I
analog_io[12] I
analog_io[13] I
analog_io[14] I
analog_io[15] I
analog_io[16] I
analog_io[17] I
analog_io[18] I
analog_io[19] I
analog_io[1] I
analog_io[20] I
analog_io[21] I
analog_io[22] I
analog_io[23] I
analog_io[24] I
analog_io[25] I
analog_io[26] I
analog_io[27] I
analog_io[28] I
analog_io[2] I
analog_io[3] I
analog_io[4] I
analog_io[5] I
analog_io[6] I
analog_io[7] I
analog_io[8] I
analog_io[9] I
io_in[0] I
io_in[10] I
io_in[11] I
io_in[12] I
io_in[13] I
io_in[14] I
io_in[15] I
io_in[16] I
io_in[17] I
io_in[18] I
io_in[19] I
io_in[1] I
io_in[20] I
io_in[21] I
io_in[22] I
io_in[23] I
io_in[24] I
io_in[25] I
io_in[26] I
io_in[27] I
io_in[28] I
io_in[29] I
io_in[2] I
io_in[30] I
io_in[31] I
io_in[32] I
io_in[33] I
io_in[34] I
io_in[35] I
io_in[36] I
io_in[37] I
io_in[3] I
io_in[4] I
io_in[5] I
io_in[6] I
io_in[7] I
io_in[8] I
io_in[9] I
io_oeb[0] O
io_oeb[10] O
io_oeb[11] O
io_oeb[12] O
io_oeb[13] O
io_oeb[14] O
io_oeb[15] O
io_oeb[16] O
io_oeb[17] O
io_oeb[18] O
io_oeb[19] O
io_oeb[1] O
io_oeb[20] O
io_oeb[21] O
io_oeb[22] O
io_oeb[23] O
io_oeb[24] O
io_oeb[25] O
io_oeb[26] O
io_oeb[27] O
io_oeb[28] O
io_oeb[29] O
io_oeb[2] O
io_oeb[30] O
io_oeb[31] O
io_oeb[32] O
io_oeb[33] O
io_oeb[34] O
io_oeb[35] O
io_oeb[36] O
io_oeb[37] O
io_oeb[3] O
io_oeb[4] O
io_oeb[5] O
io_oeb[6] O
io_oeb[7] O
io_oeb[8] O
io_oeb[9] O
io_out[0] O
io_out[10] O
io_out[11] O
io_out[12] O
io_out[13] O
io_out[14] O
io_out[15] O
io_out[16] O
io_out[17] O
io_out[18] O
io_out[19] O
io_out[1] O
io_out[20] O
io_out[21] O
io_out[22] O
io_out[23] O
io_out[24] O
io_out[25] O
io_out[26] O
io_out[27] O
io_out[28] O
io_out[29] O
io_out[2] O
io_out[30] O
io_out[31] O
io_out[32] O
io_out[33] O
io_out[34] O
io_out[35] O
io_out[36] O
io_out[37] O
io_out[3] O
io_out[4] O
io_out[5] O
io_out[6] O
io_out[7] O
io_out[8] O
io_out[9] O
la_data_in[0] I
la_data_in[100] I
la_data_in[101] I
la_data_in[102] I
la_data_in[103] I
la_data_in[104] I
la_data_in[105] I
la_data_in[106] I
la_data_in[107] I
la_data_in[108] I
la_data_in[109] I
la_data_in[10] I
la_data_in[110] I
la_data_in[111] I
la_data_in[112] I
la_data_in[113] I
la_data_in[114] I
la_data_in[115] I
la_data_in[116] I
la_data_in[117] I
la_data_in[118] I
la_data_in[119] I
la_data_in[11] I
la_data_in[120] I
la_data_in[121] I
la_data_in[122] I
la_data_in[123] I
la_data_in[124] I
la_data_in[125] I
la_data_in[126] I
la_data_in[127] I
la_data_in[12] I
la_data_in[13] I
la_data_in[14] I
la_data_in[15] I
la_data_in[16] I
la_data_in[17] I
la_data_in[18] I
la_data_in[19] I
la_data_in[1] I
la_data_in[20] I
la_data_in[21] I
la_data_in[22] I
la_data_in[23] I
la_data_in[24] I
la_data_in[25] I
la_data_in[26] I
la_data_in[27] I
la_data_in[28] I
la_data_in[29] I
la_data_in[2] I
la_data_in[30] I
la_data_in[31] I
la_data_in[32] I
la_data_in[33] I
la_data_in[34] I
la_data_in[35] I
la_data_in[36] I
la_data_in[37] I
la_data_in[38] I
la_data_in[39] I
la_data_in[3] I
la_data_in[40] I
la_data_in[41] I
la_data_in[42] I
la_data_in[43] I
la_data_in[44] I
la_data_in[45] I
la_data_in[46] I
la_data_in[47] I
la_data_in[48] I
la_data_in[49] I
la_data_in[4] I
la_data_in[50] I
la_data_in[51] I
la_data_in[52] I
la_data_in[53] I
la_data_in[54] I
la_data_in[55] I
la_data_in[56] I
la_data_in[57] I
la_data_in[58] I
la_data_in[59] I
la_data_in[5] I
la_data_in[60] I
la_data_in[61] I
la_data_in[62] I
la_data_in[63] I
la_data_in[64] I
la_data_in[65] I
la_data_in[66] I
la_data_in[67] I
la_data_in[68] I
la_data_in[69] I
la_data_in[6] I
la_data_in[70] I
la_data_in[71] I
la_data_in[72] I
la_data_in[73] I
la_data_in[74] I
la_data_in[75] I
la_data_in[76] I
la_data_in[77] I
la_data_in[78] I
la_data_in[79] I
la_data_in[7] I
la_data_in[80] I
la_data_in[81] I
la_data_in[82] I
la_data_in[83] I
la_data_in[84] I
la_data_in[85] I
la_data_in[86] I
la_data_in[87] I
la_data_in[88] I
la_data_in[89] I
la_data_in[8] I
la_data_in[90] I
la_data_in[91] I
la_data_in[92] I
la_data_in[93] I
la_data_in[94] I
la_data_in[95] I
la_data_in[96] I
la_data_in[97] I
la_data_in[98] I
la_data_in[99] I
la_data_in[9] I
la_data_out[0] O
la_data_out[100] O
la_data_out[101] O
la_data_out[102] O
la_data_out[103] O
la_data_out[104] O
la_data_out[105] O
la_data_out[106] O
la_data_out[107] O
la_data_out[108] O
la_data_out[109] O
la_data_out[10] O
la_data_out[110] O
la_data_out[111] O
la_data_out[112] O
la_data_out[113] O
la_data_out[114] O
la_data_out[115] O
la_data_out[116] O
la_data_out[117] O
la_data_out[118] O
la_data_out[119] O
la_data_out[11] O
la_data_out[120] O
la_data_out[121] O
la_data_out[122] O
la_data_out[123] O
la_data_out[124] O
la_data_out[125] O
la_data_out[126] O
la_data_out[127] O
la_data_out[12] O
la_data_out[13] O
la_data_out[14] O
la_data_out[15] O
la_data_out[16] O
la_data_out[17] O
la_data_out[18] O
la_data_out[19] O
la_data_out[1] O
la_data_out[20] O
la_data_out[21] O
la_data_out[22] O
la_data_out[23] O
la_data_out[24] O
la_data_out[25] O
la_data_out[26] O
la_data_out[27] O
la_data_out[28] O
la_data_out[29] O
la_data_out[2] O
la_data_out[30] O
la_data_out[31] O
la_data_out[32] O
la_data_out[33] O
la_data_out[34] O
la_data_out[35] O
la_data_out[36] O
la_data_out[37] O
la_data_out[38] O
la_data_out[39] O
la_data_out[3] O
la_data_out[40] O
la_data_out[41] O
la_data_out[42] O
la_data_out[43] O
la_data_out[44] O
la_data_out[45] O
la_data_out[46] O
la_data_out[47] O
la_data_out[48] O
la_data_out[49] O
la_data_out[4] O
la_data_out[50] O
la_data_out[51] O
la_data_out[52] O
la_data_out[53] O
la_data_out[54] O
la_data_out[55] O
la_data_out[56] O
la_data_out[57] O
la_data_out[58] O
la_data_out[59] O
la_data_out[5] O
la_data_out[60] O
la_data_out[61] O
la_data_out[62] O
la_data_out[63] O
la_data_out[64] O
la_data_out[65] O
la_data_out[66] O
la_data_out[67] O
la_data_out[68] O
la_data_out[69] O
la_data_out[6] O
la_data_out[70] O
la_data_out[71] O
la_data_out[72] O
la_data_out[73] O
la_data_out[74] O
la_data_out[75] O
la_data_out[76] O
la_data_out[77] O
la_data_out[78] O
la_data_out[79] O
la_data_out[7] O
la_data_out[80] O
la_data_out[81] O
la_data_out[82] O
la_data_out[83] O
la_data_out[84] O
la_data_out[85] O
la_data_out[86] O
la_data_out[87] O
la_data_out[88] O
la_data_out[89] O
la_data_out[8] O
la_data_out[90] O
la_data_out[91] O
la_data_out[92] O
la_data_out[93] O
la_data_out[94] O
la_data_out[95] O
la_data_out[96] O
la_data_out[97] O
la_data_out[98] O
la_data_out[99] O
la_data_out[9] O
la_oenb[0] I
la_oenb[100] I
la_oenb[101] I
la_oenb[102] I
la_oenb[103] I
la_oenb[104] I
la_oenb[105] I
la_oenb[106] I
la_oenb[107] I
la_oenb[108] I
la_oenb[109] I
la_oenb[10] I
la_oenb[110] I
la_oenb[111] I
la_oenb[112] I
la_oenb[113] I
la_oenb[114] I
la_oenb[115] I
la_oenb[116] I
la_oenb[117] I
la_oenb[118] I
la_oenb[119] I
la_oenb[11] I
la_oenb[120] I
la_oenb[121] I
la_oenb[122] I
la_oenb[123] I
la_oenb[124] I
la_oenb[125] I
la_oenb[126] I
la_oenb[127] I
la_oenb[12] I
la_oenb[13] I
la_oenb[14] I
la_oenb[15] I
la_oenb[16] I
la_oenb[17] I
la_oenb[18] I
la_oenb[19] I
la_oenb[1] I
la_oenb[20] I
la_oenb[21] I
la_oenb[22] I
la_oenb[23] I
la_oenb[24] I
la_oenb[25] I
la_oenb[26] I
la_oenb[27] I
la_oenb[28] I
la_oenb[29] I
la_oenb[2] I
la_oenb[30] I
la_oenb[31] I
la_oenb[32] I
la_oenb[33] I
la_oenb[34] I
la_oenb[35] I
la_oenb[36] I
la_oenb[37] I
la_oenb[38] I
la_oenb[39] I
la_oenb[3] I
la_oenb[40] I
la_oenb[41] I
la_oenb[42] I
la_oenb[43] I
la_oenb[44] I
la_oenb[45] I
la_oenb[46] I
la_oenb[47] I
la_oenb[48] I
la_oenb[49] I
la_oenb[4] I
la_oenb[50] I
la_oenb[51] I
la_oenb[52] I
la_oenb[53] I
la_oenb[54] I
la_oenb[55] I
la_oenb[56] I
la_oenb[57] I
la_oenb[58] I
la_oenb[59] I
la_oenb[5] I
la_oenb[60] I
la_oenb[61] I
la_oenb[62] I
la_oenb[63] I
la_oenb[64] I
la_oenb[65] I
la_oenb[66] I
la_oenb[67] I
la_oenb[68] I
la_oenb[69] I
la_oenb[6] I
la_oenb[70] I
la_oenb[71] I
la_oenb[72] I
la_oenb[73] I
la_oenb[74] I
la_oenb[75] I
la_oenb[76] I
la_oenb[77] I
la_oenb[78] I
la_oenb[79] I
la_oenb[7] I
la_oenb[80] I
la_oenb[81] I
la_oenb[82] I
la_oenb[83] I
la_oenb[84] I
la_oenb[85] I
la_oenb[86] I
la_oenb[87] I
la_oenb[88] I
la_oenb[89] I
la_oenb[8] I
la_oenb[90] I
la_oenb[91] I
la_oenb[92] I
la_oenb[93] I
la_oenb[94] I
la_oenb[95] I
la_oenb[96] I
la_oenb[97] I
la_oenb[98] I
la_oenb[99] I
la_oenb[9] I
user_clock2 I
user_irq[0] O
user_irq[1] O
user_irq[2] O
wb_clk_i I
wb_rst_i I
wbs_ack_o O
wbs_adr_i[0] I
wbs_adr_i[10] I
wbs_adr_i[11] I
wbs_adr_i[12] I
wbs_adr_i[13] I
wbs_adr_i[14] I
wbs_adr_i[15] I
wbs_adr_i[16] I
wbs_adr_i[17] I
wbs_adr_i[18] I
wbs_adr_i[19] I
wbs_adr_i[1] I
wbs_adr_i[20] I
wbs_adr_i[21] I
wbs_adr_i[22] I
wbs_adr_i[23] I
wbs_adr_i[24] I
wbs_adr_i[25] I
wbs_adr_i[26] I
wbs_adr_i[27] I
wbs_adr_i[28] I
wbs_adr_i[29] I
wbs_adr_i[2] I
wbs_adr_i[30] I
wbs_adr_i[31] I
wbs_adr_i[3] I
wbs_adr_i[4] I
wbs_adr_i[5] I
wbs_adr_i[6] I
wbs_adr_i[7] I
wbs_adr_i[8] I
wbs_adr_i[9] I
wbs_cyc_i I
wbs_dat_i[0] I
wbs_dat_i[10] I
wbs_dat_i[11] I
wbs_dat_i[12] I
wbs_dat_i[13] I
wbs_dat_i[14] I
wbs_dat_i[15] I
wbs_dat_i[16] I
wbs_dat_i[17] I
wbs_dat_i[18] I
wbs_dat_i[19] I
wbs_dat_i[1] I
wbs_dat_i[20] I
wbs_dat_i[21] I
wbs_dat_i[22] I
wbs_dat_i[23] I
wbs_dat_i[24] I
wbs_dat_i[25] I
wbs_dat_i[26] I
wbs_dat_i[27] I
wbs_dat_i[28] I
wbs_dat_i[29] I
wbs_dat_i[2] I
wbs_dat_i[30] I
wbs_dat_i[31] I
wbs_dat_i[3] I
wbs_dat_i[4] I
wbs_dat_i[5] I
wbs_dat_i[6] I
wbs_dat_i[7] I
wbs_dat_i[8] I
wbs_dat_i[9] I
wbs_dat_o[0] O
wbs_dat_o[10] O
wbs_dat_o[11] O
wbs_dat_o[12] O
wbs_dat_o[13] O
wbs_dat_o[14] O
wbs_dat_o[15] O
wbs_dat_o[16] O
wbs_dat_o[17] O
wbs_dat_o[18] O
wbs_dat_o[19] O
wbs_dat_o[1] O
wbs_dat_o[20] O
wbs_dat_o[21] O
wbs_dat_o[22] O
wbs_dat_o[23] O
wbs_dat_o[24] O
wbs_dat_o[25] O
wbs_dat_o[26] O
wbs_dat_o[27] O
wbs_dat_o[28] O
wbs_dat_o[29] O
wbs_dat_o[2] O
wbs_dat_o[30] O
wbs_dat_o[31] O
wbs_dat_o[3] O
wbs_dat_o[4] O
wbs_dat_o[5] O
wbs_dat_o[6] O
wbs_dat_o[7] O
wbs_dat_o[8] O
wbs_dat_o[9] O
wbs_sel_i[0] I
wbs_sel_i[1] I
wbs_sel_i[2] I
wbs_sel_i[3] I
wbs_stb_i I
wbs_we_i I

*D_NET *30 0.374508
*CONN
*P io_in[0] I
*I *641:io_in[0] I *D macro_2xdrive
*I *642:io_in[0] I *D macro_and_inv
*I *640:io_in[0] I *D macro_2to3
*I *643:io_in[0] I *D macro_golden
*CAP
1 io_in[0] 0.000626664
2 *641:io_in[0] 0.000864051
3 *642:io_in[0] 0.000570109
4 *640:io_in[0] 0.000559384
5 *643:io_in[0] 0.0125709
6 *30:75 0.00415934
7 *30:74 0.00375553
8 *30:66 0.012157
9 *30:65 0.0119907
10 *30:63 0.00768046
11 *30:61 0.00960138
12 *30:50 0.0147098
13 *30:45 0.0261087
14 *30:44 0.0138792
15 *30:42 0.00163754
16 *30:39 0.0162938
17 *30:38 0.0155937
18 *30:16 0.0127644
19 *30:11 0.0709664
20 *30:10 0.0708462
21 *30:8 0.033273
22 *30:7 0.0338997
23 *640:io_in[0] *68:23 0
24 *640:io_in[0] *106:70 0
25 *641:io_in[0] *641:io_oeb[0] 0
26 *641:io_in[0] *120:18 0
27 *641:io_in[0] *125:91 0
28 *641:io_in[0] *194:94 0
29 *641:io_in[0] *194:96 0
30 *642:io_in[0] *642:io_in[4] 0
31 *642:io_in[0] *39:32 0
32 *642:io_in[0] *40:81 0
33 *643:io_in[0] *643:io_in[1] 0
34 *643:io_in[0] *41:17 0
35 *643:io_in[0] *61:20 0
36 *643:io_in[0] *62:20 0
37 *643:io_in[0] *68:7 0
38 *643:io_in[0] *183:69 0
39 *643:io_in[0] *390:32 0
40 *643:io_in[0] *448:32 0
41 *643:io_in[0] *612:38 0
42 *30:8 io_oeb[2] 0
43 *30:8 io_out[0] 0
44 *30:8 io_out[2] 0
45 *30:8 *41:8 0
46 *30:8 *52:8 0
47 *30:8 *61:8 0
48 *30:8 *137:65 0
49 *30:8 *138:91 0
50 *30:16 *197:33 0
51 *30:16 *441:34 0
52 *30:39 *641:la_data_in[0] 0
53 *30:39 *60:42 0
54 *30:39 *67:62 0
55 *30:39 *125:15 0
56 *30:39 *197:33 0
57 *30:39 *229:36 0
58 *30:39 *272:36 0
59 *30:39 *440:71 0
60 *30:39 *441:34 0
61 *30:39 *492:33 0
62 *30:39 *492:58 0
63 *30:39 *548:41 0
64 *30:39 *555:85 0
65 *30:39 *570:45 0
66 *30:42 *120:18 0
67 *30:42 *125:18 0
68 *30:42 *125:91 0
69 *30:42 *130:22 0
70 *30:45 *493:81 0
71 *30:45 *634:83 0
72 *30:50 *90:44 0
73 *30:50 *117:34 0
74 *30:61 *68:23 0
75 *30:61 *106:70 0
76 *30:61 *106:72 0
77 *30:63 *68:23 0
78 *30:63 *106:72 0
79 *30:74 *33:28 0
80 *30:75 *102:57 0
81 *30:75 *116:92 0
82 *30:75 *130:96 0
*RES
1 io_in[0] *30:7 2.5292 
2 *30:7 *30:8 727.875 
3 *30:8 *30:10 0.5 
4 *30:10 *30:11 229.492 
5 *30:11 *30:16 3.655 
6 *30:16 *643:io_in[0] 47.158 
7 *30:16 *30:38 0.829333 
8 *30:38 *30:39 339.638 
9 *30:39 *30:42 17.56 
10 *30:42 *30:44 4 
11 *30:44 *30:45 303.682 
12 *30:45 *30:50 40.6011 
13 *30:50 *640:io_in[0] 12.24 
14 *30:50 *30:61 42.075 
15 *30:61 *30:63 168.083 
16 *30:63 *30:65 4 
17 *30:65 *30:66 210.21 
18 *30:66 *30:74 5.73663 
19 *30:74 *30:75 78.5175 
20 *30:75 *642:io_in[0] 18.2225 
21 *30:42 *641:io_in[0] 20.86 
*END

*D_NET *31 0.263446
*CONN
*P io_in[10] I
*I *642:io_in[10] I *D macro_and_inv
*I *640:io_in[10] I *D macro_2to3
*I *643:io_in[10] I *D macro_golden
*I *641:io_in[10] I *D macro_2xdrive
*CAP
1 io_in[10] 0.000894758
2 *642:io_in[10] 0.000625793
3 *640:io_in[10] 0.000743196
4 *643:io_in[10] 0.000381174
5 *641:io_in[10] 0.000485947
6 *31:49 0.00920353
7 *31:48 0.00882236
8 *31:46 0.0138162
9 *31:45 0.0138162
10 *31:43 0.00402059
11 *31:42 0.00402059
12 *31:34 0.000581601
13 *31:31 0.00925556
14 *31:30 0.0091599
15 *31:28 0.0136991
16 *31:27 0.0136991
17 *31:25 0.0035286
18 *31:24 0.0042718
19 *31:22 0.0137869
20 *31:21 0.0137869
21 *31:19 0.0130141
22 *31:17 0.014324
23 *31:11 0.0486488
24 *31:10 0.0488594
25 *640:io_in[10] *640:io_oeb[10] 0
26 *640:io_in[10] *640:io_out[9] 0
27 *640:io_in[10] *33:39 0
28 *640:io_in[10] *105:52 0
29 *640:io_in[10] *142:61 0
30 *641:io_in[10] *641:io_out[9] 0
31 *641:io_in[10] *69:29 0
32 *642:io_in[10] *642:io_oeb[10] 0
33 *642:io_in[10] *642:io_out[10] 0
34 *642:io_in[10] *69:59 0
35 *642:io_in[10] *70:67 0
36 *642:io_in[10] *143:79 0
37 *643:io_in[10] *69:10 0
38 *643:io_in[10] *143:12 0
39 *31:10 *32:8 0
40 *31:11 *34:17 0
41 *31:11 *132:81 0
42 *31:17 *69:59 0
43 *31:17 *70:67 0
44 *31:17 *71:52 0
45 *31:17 *72:44 0
46 *31:19 *40:18 0
47 *31:19 *60:90 0
48 *31:19 *71:52 0
49 *31:19 *72:44 0
50 *31:19 *88:90 0
51 *31:19 *107:72 0
52 *31:22 *640:io_in[9] 0
53 *31:22 *67:38 0
54 *31:22 *105:51 0
55 *31:22 *142:61 0
56 *31:22 *142:63 0
57 *31:25 *33:39 0
58 *31:25 *105:38 0
59 *31:28 *640:wbs_adr_i[1] 0
60 *31:28 *32:42 0
61 *31:28 *129:49 0
62 *31:28 *137:35 0
63 *31:28 *453:61 0
64 *31:28 *454:27 0
65 *31:28 *542:86 0
66 *31:28 *568:84 0
67 *31:31 *641:io_in[13] 0
68 *31:31 *641:io_oeb[27] 0
69 *31:31 *641:io_out[36] 0
70 *31:31 *32:45 0
71 *31:31 *34:81 0
72 *31:31 *35:65 0
73 *31:31 *75:14 0
74 *31:31 *92:25 0
75 *31:31 *96:43 0
76 *31:31 *97:44 0
77 *31:31 *131:46 0
78 *31:34 *641:io_out[9] 0
79 *31:34 *69:29 0
80 *31:43 *32:51 0
81 *31:43 *75:14 0
82 *31:46 *37:65 0
83 *31:46 *128:13 0
84 *31:46 *138:17 0
85 *31:46 *178:17 0
86 *31:46 *272:42 0
87 *31:46 *272:74 0
88 *31:46 *283:33 0
89 *31:46 *307:30 0
90 *31:46 *307:58 0
91 *31:46 *350:23 0
92 *31:46 *440:41 0
93 *31:46 *440:70 0
94 *31:49 *49:75 0
95 *31:49 *63:21 0
96 *31:49 *96:10 0
97 *31:49 *111:8 0
98 *31:49 *132:12 0
99 *31:49 *135:10 0
100 *31:49 *136:24 0
*RES
1 io_in[10] *31:10 11.7232 
2 *31:10 *31:11 840.87 
3 *31:11 *31:17 22.52 
4 *31:17 *31:19 228.15 
5 *31:19 *31:21 4 
6 *31:21 *31:22 301.515 
7 *31:22 *31:24 4 
8 *31:24 *31:25 61.86 
9 *31:25 *31:27 4 
10 *31:27 *31:28 299.73 
11 *31:28 *31:30 4 
12 *31:30 *31:31 160.53 
13 *31:31 *31:34 6.145 
14 *31:34 *641:io_in[10] 10.635 
15 *31:34 *31:42 4 
16 *31:42 *31:43 70.485 
17 *31:43 *31:45 4 
18 *31:45 *31:46 302.28 
19 *31:46 *31:48 4 
20 *31:48 *31:49 154.665 
21 *31:49 *643:io_in[10] 12.34 
22 *31:24 *640:io_in[10] 19.6675 
23 *31:17 *642:io_in[10] 17.7175 
*END

*D_NET *32 0.281599
*CONN
*P io_in[11] I
*I *642:io_in[11] I *D macro_and_inv
*I *641:io_in[11] I *D macro_2xdrive
*I *643:io_in[11] I *D macro_golden
*I *640:io_in[11] I *D macro_2to3
*CAP
1 io_in[11] 0.000626625
2 *642:io_in[11] 0.000493627
3 *641:io_in[11] 0.000578116
4 *643:io_in[11] 4.97124e-05
5 *640:io_in[11] 0.000502884
6 *32:58 0.0033368
7 *32:56 0.00344959
8 *32:54 0.0110854
9 *32:53 0.0109229
10 *32:51 0.0130141
11 *32:50 0.013689
12 *32:45 0.00911599
13 *32:44 0.00901915
14 *32:42 0.0135942
15 *32:41 0.0135942
16 *32:39 0.00394486
17 *32:38 0.00394486
18 *32:28 0.00062185
19 *32:25 0.00955738
20 *32:24 0.00943841
21 *32:22 0.0136065
22 *32:21 0.0136065
23 *32:19 0.00335149
24 *32:17 0.00418595
25 *32:11 0.0480497
26 *32:10 0.0477089
27 *32:8 0.0099421
28 *32:7 0.0105687
29 *640:io_in[11] *640:io_oeb[10] 0
30 *640:io_in[11] *640:io_oeb[11] 0
31 *641:io_in[11] *641:io_oeb[11] 0
32 *641:io_in[11] *641:io_out[10] 0
33 *641:io_in[11] *33:61 0
34 *641:io_in[11] *69:29 0
35 *641:io_in[11] *75:14 0
36 *642:io_in[11] *642:io_oeb[11] 0
37 *642:io_in[11] *642:io_out[10] 0
38 *642:io_in[11] *642:io_out[11] 0
39 *642:io_in[11] *70:67 0
40 *32:8 io_oeb[10] 0
41 *32:8 io_out[10] 0
42 *32:11 *58:75 0
43 *32:11 *59:67 0
44 *32:11 *60:90 0
45 *32:11 *72:44 0
46 *32:11 *72:60 0
47 *32:11 *73:61 0
48 *32:17 *642:io_in[12] 0
49 *32:17 *642:io_out[11] 0
50 *32:17 *89:69 0
51 *32:17 *107:90 0
52 *32:17 *135:92 0
53 *32:19 *61:63 0
54 *32:19 *89:69 0
55 *32:19 *135:92 0
56 *32:19 *142:66 0
57 *32:22 *33:28 0
58 *32:22 *37:37 0
59 *32:22 *219:92 0
60 *32:22 *364:95 0
61 *32:25 *640:io_in[21] 0
62 *32:25 *33:37 0
63 *32:25 *33:39 0
64 *32:25 *35:45 0
65 *32:25 *35:47 0
66 *32:25 *36:32 0
67 *32:25 *36:48 0
68 *32:25 *76:32 0
69 *32:25 *87:46 0
70 *32:25 *105:52 0
71 *32:28 *640:io_oeb[10] 0
72 *32:28 *640:io_oeb[11] 0
73 *32:39 *43:64 0
74 *32:39 *137:40 0
75 *32:39 *137:54 0
76 *32:39 *137:56 0
77 *32:39 *142:56 0
78 *32:39 *142:77 0
79 *32:42 *205:47 0
80 *32:42 *210:50 0
81 *32:42 *568:84 0
82 *32:45 *33:45 0
83 *32:45 *92:25 0
84 *32:50 *641:io_oeb[11] 0
85 *32:50 *69:29 0
86 *32:51 *33:61 0
87 *32:51 *75:14 0
88 *32:51 *92:10 0
89 *32:51 *141:10 0
90 *32:58 *70:7 0
91 *32:58 *70:9 0
92 *32:58 *107:7 0
93 *32:58 *108:13 0
94 *31:10 *32:8 0
95 *31:28 *32:42 0
96 *31:31 *32:45 0
97 *31:43 *32:51 0
*RES
1 io_in[11] *32:7 2.5292 
2 *32:7 *32:8 217.492 
3 *32:8 *32:10 4 
4 *32:10 *32:11 836.385 
5 *32:11 *32:17 14.555 
6 *32:17 *32:19 58.755 
7 *32:19 *32:21 4 
8 *32:21 *32:22 297.69 