*SPEF "ieee 1481-1999"
*DESIGN "user_project_wrapper"
*DATE "11:11:11 Fri 11 11, 1111"
*VENDOR "OpenRCX"
*PROGRAM "Parallel Extraction"
*VERSION "1.0"
*DESIGN_FLOW "NAME_SCOPE LOCAL" "PIN_CAP NONE"
*DIVIDER /
*DELIMITER :
*BUS_DELIMITER []
*T_UNIT 1 NS
*C_UNIT 1 PF
*R_UNIT 1 OHM
*L_UNIT 1 HENRY

*NAME_MAP
*1 analog_io[0]
*2 analog_io[10]
*3 analog_io[11]
*4 analog_io[12]
*5 analog_io[13]
*6 analog_io[14]
*7 analog_io[15]
*8 analog_io[16]
*9 analog_io[17]
*10 analog_io[18]
*11 analog_io[19]
*12 analog_io[1]
*13 analog_io[20]
*14 analog_io[21]
*15 analog_io[22]
*16 analog_io[23]
*17 analog_io[24]
*18 analog_io[25]
*19 analog_io[26]
*20 analog_io[27]
*21 analog_io[28]
*22 analog_io[2]
*23 analog_io[3]
*24 analog_io[4]
*25 analog_io[5]
*26 analog_io[6]
*27 analog_io[7]
*28 analog_io[8]
*29 analog_io[9]
*30 io_in[0]
*31 io_in[10]
*32 io_in[11]
*33 io_in[12]
*34 io_in[13]
*35 io_in[14]
*36 io_in[15]
*37 io_in[16]
*38 io_in[17]
*39 io_in[18]
*40 io_in[19]
*41 io_in[1]
*42 io_in[20]
*43 io_in[21]
*44 io_in[22]
*45 io_in[23]
*46 io_in[24]
*47 io_in[25]
*48 io_in[26]
*49 io_in[27]
*50 io_in[28]
*51 io_in[29]
*52 io_in[2]
*53 io_in[30]
*54 io_in[31]
*55 io_in[32]
*56 io_in[33]
*57 io_in[34]
*58 io_in[35]
*59 io_in[36]
*60 io_in[37]
*61 io_in[3]
*62 io_in[4]
*63 io_in[5]
*64 io_in[6]
*65 io_in[7]
*66 io_in[8]
*67 io_in[9]
*68 io_oeb[0]
*69 io_oeb[10]
*70 io_oeb[11]
*71 io_oeb[12]
*72 io_oeb[13]
*73 io_oeb[14]
*74 io_oeb[15]
*75 io_oeb[16]
*76 io_oeb[17]
*77 io_oeb[18]
*78 io_oeb[19]
*79 io_oeb[1]
*80 io_oeb[20]
*81 io_oeb[21]
*82 io_oeb[22]
*83 io_oeb[23]
*84 io_oeb[24]
*85 io_oeb[25]
*86 io_oeb[26]
*87 io_oeb[27]
*88 io_oeb[28]
*89 io_oeb[29]
*90 io_oeb[2]
*91 io_oeb[30]
*92 io_oeb[31]
*93 io_oeb[32]
*94 io_oeb[33]
*95 io_oeb[34]
*96 io_oeb[35]
*97 io_oeb[36]
*98 io_oeb[37]
*99 io_oeb[3]
*100 io_oeb[4]
*101 io_oeb[5]
*102 io_oeb[6]
*103 io_oeb[7]
*104 io_oeb[8]
*105 io_oeb[9]
*106 io_out[0]
*107 io_out[10]
*108 io_out[11]
*109 io_out[12]
*110 io_out[13]
*111 io_out[14]
*112 io_out[15]
*113 io_out[16]
*114 io_out[17]
*115 io_out[18]
*116 io_out[19]
*117 io_out[1]
*118 io_out[20]
*119 io_out[21]
*120 io_out[22]
*121 io_out[23]
*122 io_out[24]
*123 io_out[25]
*124 io_out[26]
*125 io_out[27]
*126 io_out[28]
*127 io_out[29]
*128 io_out[2]
*129 io_out[30]
*130 io_out[31]
*131 io_out[32]
*132 io_out[33]
*133 io_out[34]
*134 io_out[35]
*135 io_out[36]
*136 io_out[37]
*137 io_out[3]
*138 io_out[4]
*139 io_out[5]
*140 io_out[6]
*141 io_out[7]
*142 io_out[8]
*143 io_out[9]
*144 la_data_in[0]
*145 la_data_in[100]
*146 la_data_in[101]
*147 la_data_in[102]
*148 la_data_in[103]
*149 la_data_in[104]
*150 la_data_in[105]
*151 la_data_in[106]
*152 la_data_in[107]
*153 la_data_in[108]
*154 la_data_in[109]
*155 la_data_in[10]
*156 la_data_in[110]
*157 la_data_in[111]
*158 la_data_in[112]
*159 la_data_in[113]
*160 la_data_in[114]
*161 la_data_in[115]
*162 la_data_in[116]
*163 la_data_in[117]
*164 la_data_in[118]
*165 la_data_in[119]
*166 la_data_in[11]
*167 la_data_in[120]
*168 la_data_in[121]
*169 la_data_in[122]
*170 la_data_in[123]
*171 la_data_in[124]
*172 la_data_in[125]
*173 la_data_in[126]
*174 la_data_in[127]
*175 la_data_in[12]
*176 la_data_in[13]
*177 la_data_in[14]
*178 la_data_in[15]
*179 la_data_in[16]
*180 la_data_in[17]
*181 la_data_in[18]
*182 la_data_in[19]
*183 la_data_in[1]
*184 la_data_in[20]
*185 la_data_in[21]
*186 la_data_in[22]
*187 la_data_in[23]
*188 la_data_in[24]
*189 la_data_in[25]
*190 la_data_in[26]
*191 la_data_in[27]
*192 la_data_in[28]
*193 la_data_in[29]
*194 la_data_in[2]
*195 la_data_in[30]
*196 la_data_in[31]
*197 la_data_in[32]
*198 la_data_in[33]
*199 la_data_in[34]
*200 la_data_in[35]
*201 la_data_in[36]
*202 la_data_in[37]
*203 la_data_in[38]
*204 la_data_in[39]
*205 la_data_in[3]
*206 la_data_in[40]
*207 la_data_in[41]
*208 la_data_in[42]
*209 la_data_in[43]
*210 la_data_in[44]
*211 la_data_in[45]
*212 la_data_in[46]
*213 la_data_in[47]
*214 la_data_in[48]
*215 la_data_in[49]
*216 la_data_in[4]
*217 la_data_in[50]
*218 la_data_in[51]
*219 la_data_in[52]
*220 la_data_in[53]
*221 la_data_in[54]
*222 la_data_in[55]
*223 la_data_in[56]
*224 la_data_in[57]
*225 la_data_in[58]
*226 la_data_in[59]
*227 la_data_in[5]
*228 la_data_in[60]
*229 la_data_in[61]
*230 la_data_in[62]
*231 la_data_in[63]
*232 la_data_in[64]
*233 la_data_in[65]
*234 la_data_in[66]
*235 la_data_in[67]
*236 la_data_in[68]
*237 la_data_in[69]
*238 la_data_in[6]
*239 la_data_in[70]
*240 la_data_in[71]
*241 la_data_in[72]
*242 la_data_in[73]
*243 la_data_in[74]
*244 la_data_in[75]
*245 la_data_in[76]
*246 la_data_in[77]
*247 la_data_in[78]
*248 la_data_in[79]
*249 la_data_in[7]
*250 la_data_in[80]
*251 la_data_in[81]
*252 la_data_in[82]
*253 la_data_in[83]
*254 la_data_in[84]
*255 la_data_in[85]
*256 la_data_in[86]
*257 la_data_in[87]
*258 la_data_in[88]
*259 la_data_in[89]
*260 la_data_in[8]
*261 la_data_in[90]
*262 la_data_in[91]
*263 la_data_in[92]
*264 la_data_in[93]
*265 la_data_in[94]
*266 la_data_in[95]
*267 la_data_in[96]
*268 la_data_in[97]
*269 la_data_in[98]
*270 la_data_in[99]
*271 la_data_in[9]
*272 la_data_out[0]
*273 la_data_out[100]
*274 la_data_out[101]
*275 la_data_out[102]
*276 la_data_out[103]
*277 la_data_out[104]
*278 la_data_out[105]
*279 la_data_out[106]
*280 la_data_out[107]
*281 la_data_out[108]
*282 la_data_out[109]
*283 la_data_out[10]
*284 la_data_out[110]
*285 la_data_out[111]
*286 la_data_out[112]
*287 la_data_out[113]
*288 la_data_out[114]
*289 la_data_out[115]
*290 la_data_out[116]
*291 la_data_out[117]
*292 la_data_out[118]
*293 la_data_out[119]
*294 la_data_out[11]
*295 la_data_out[120]
*296 la_data_out[121]
*297 la_data_out[122]
*298 la_data_out[123]
*299 la_data_out[124]
*300 la_data_out[125]
*301 la_data_out[126]
*302 la_data_out[127]
*303 la_data_out[12]
*304 la_data_out[13]
*305 la_data_out[14]
*306 la_data_out[15]
*307 la_data_out[16]
*308 la_data_out[17]
*309 la_data_out[18]
*310 la_data_out[19]
*311 la_data_out[1]
*312 la_data_out[20]
*313 la_data_out[21]
*314 la_data_out[22]
*315 la_data_out[23]
*316 la_data_out[24]
*317 la_data_out[25]
*318 la_data_out[26]
*319 la_data_out[27]
*320 la_data_out[28]
*321 la_data_out[29]
*322 la_data_out[2]
*323 la_data_out[30]
*324 la_data_out[31]
*325 la_data_out[32]
*326 la_data_out[33]
*327 la_data_out[34]
*328 la_data_out[35]
*329 la_data_out[36]
*330 la_data_out[37]
*331 la_data_out[38]
*332 la_data_out[39]
*333 la_data_out[3]
*334 la_data_out[40]
*335 la_data_out[41]
*336 la_data_out[42]
*337 la_data_out[43]
*338 la_data_out[44]
*339 la_data_out[45]
*340 la_data_out[46]
*341 la_data_out[47]
*342 la_data_out[48]
*343 la_data_out[49]
*344 la_data_out[4]
*345 la_data_out[50]
*346 la_data_out[51]
*347 la_data_out[52]
*348 la_data_out[53]
*349 la_data_out[54]
*350 la_data_out[55]
*351 la_data_out[56]
*352 la_data_out[57]
*353 la_data_out[58]
*354 la_data_out[59]
*355 la_data_out[5]
*356 la_data_out[60]
*357 la_data_out[61]
*358 la_data_out[62]
*359 la_data_out[63]
*360 la_data_out[64]
*361 la_data_out[65]
*362 la_data_out[66]
*363 la_data_out[67]
*364 la_data_out[68]
*365 la_data_out[69]
*366 la_data_out[6]
*367 la_data_out[70]
*368 la_data_out[71]
*369 la_data_out[72]
*370 la_data_out[73]
*371 la_data_out[74]
*372 la_data_out[75]
*373 la_data_out[76]
*374 la_data_out[77]
*375 la_data_out[78]
*376 la_data_out[79]
*377 la_data_out[7]
*378 la_data_out[80]
*379 la_data_out[81]
*380 la_data_out[82]
*381 la_data_out[83]
*382 la_data_out[84]
*383 la_data_out[85]
*384 la_data_out[86]
*385 la_data_out[87]
*386 la_data_out[88]
*387 la_data_out[89]
*388 la_data_out[8]
*389 la_data_out[90]
*390 la_data_out[91]
*391 la_data_out[92]
*392 la_data_out[93]
*393 la_data_out[94]
*394 la_data_out[95]
*395 la_data_out[96]
*396 la_data_out[97]
*397 la_data_out[98]
*398 la_data_out[99]
*399 la_data_out[9]
*400 la_oenb[0]
*401 la_oenb[100]
*402 la_oenb[101]
*403 la_oenb[102]
*404 la_oenb[103]
*405 la_oenb[104]
*406 la_oenb[105]
*407 la_oenb[106]
*408 la_oenb[107]
*409 la_oenb[108]
*410 la_oenb[109]
*411 la_oenb[10]
*412 la_oenb[110]
*413 la_oenb[111]
*414 la_oenb[112]
*415 la_oenb[113]
*416 la_oenb[114]
*417 la_oenb[115]
*418 la_oenb[116]
*419 la_oenb[117]
*420 la_oenb[118]
*421 la_oenb[119]
*422 la_oenb[11]
*423 la_oenb[120]
*424 la_oenb[121]
*425 la_oenb[122]
*426 la_oenb[123]
*427 la_oenb[124]
*428 la_oenb[125]
*429 la_oenb[126]
*430 la_oenb[127]
*431 la_oenb[12]
*432 la_oenb[13]
*433 la_oenb[14]
*434 la_oenb[15]
*435 la_oenb[16]
*436 la_oenb[17]
*437 la_oenb[18]
*438 la_oenb[19]
*439 la_oenb[1]
*440 la_oenb[20]
*441 la_oenb[21]
*442 la_oenb[22]
*443 la_oenb[23]
*444 la_oenb[24]
*445 la_oenb[25]
*446 la_oenb[26]
*447 la_oenb[27]
*448 la_oenb[28]
*449 la_oenb[29]
*450 la_oenb[2]
*451 la_oenb[30]
*452 la_oenb[31]
*453 la_oenb[32]
*454 la_oenb[33]
*455 la_oenb[34]
*456 la_oenb[35]
*457 la_oenb[36]
*458 la_oenb[37]
*459 la_oenb[38]
*460 la_oenb[39]
*461 la_oenb[3]
*462 la_oenb[40]
*463 la_oenb[41]
*464 la_oenb[42]
*465 la_oenb[43]
*466 la_oenb[44]
*467 la_oenb[45]
*468 la_oenb[46]
*469 la_oenb[47]
*470 la_oenb[48]
*471 la_oenb[49]
*472 la_oenb[4]
*473 la_oenb[50]
*474 la_oenb[51]
*475 la_oenb[52]
*476 la_oenb[53]
*477 la_oenb[54]
*478 la_oenb[55]
*479 la_oenb[56]
*480 la_oenb[57]
*481 la_oenb[58]
*482 la_oenb[59]
*483 la_oenb[5]
*484 la_oenb[60]
*485 la_oenb[61]
*486 la_oenb[62]
*487 la_oenb[63]
*488 la_oenb[64]
*489 la_oenb[65]
*490 la_oenb[66]
*491 la_oenb[67]
*492 la_oenb[68]
*493 la_oenb[69]
*494 la_oenb[6]
*495 la_oenb[70]
*496 la_oenb[71]
*497 la_oenb[72]
*498 la_oenb[73]
*499 la_oenb[74]
*500 la_oenb[75]
*501 la_oenb[76]
*502 la_oenb[77]
*503 la_oenb[78]
*504 la_oenb[79]
*505 la_oenb[7]
*506 la_oenb[80]
*507 la_oenb[81]
*508 la_oenb[82]
*509 la_oenb[83]
*510 la_oenb[84]
*511 la_oenb[85]
*512 la_oenb[86]
*513 la_oenb[87]
*514 la_oenb[88]
*515 la_oenb[89]
*516 la_oenb[8]
*517 la_oenb[90]
*518 la_oenb[91]
*519 la_oenb[92]
*520 la_oenb[93]
*521 la_oenb[94]
*522 la_oenb[95]
*523 la_oenb[96]
*524 la_oenb[97]
*525 la_oenb[98]
*526 la_oenb[99]
*527 la_oenb[9]
*528 user_clock2
*529 user_irq[0]
*530 user_irq[1]
*531 user_irq[2]
*534 wb_clk_i
*535 wb_rst_i
*536 wbs_ack_o
*537 wbs_adr_i[0]
*538 wbs_adr_i[10]
*539 wbs_adr_i[11]
*540 wbs_adr_i[12]
*541 wbs_adr_i[13]
*542 wbs_adr_i[14]
*543 wbs_adr_i[15]
*544 wbs_adr_i[16]
*545 wbs_adr_i[17]
*546 wbs_adr_i[18]
*547 wbs_adr_i[19]
*548 wbs_adr_i[1]
*549 wbs_adr_i[20]
*550 wbs_adr_i[21]
*551 wbs_adr_i[22]
*552 wbs_adr_i[23]
*553 wbs_adr_i[24]
*554 wbs_adr_i[25]
*555 wbs_adr_i[26]
*556 wbs_adr_i[27]
*557 wbs_adr_i[28]
*558 wbs_adr_i[29]
*559 wbs_adr_i[2]
*560 wbs_adr_i[30]
*561 wbs_adr_i[31]
*562 wbs_adr_i[3]
*563 wbs_adr_i[4]
*564 wbs_adr_i[5]
*565 wbs_adr_i[6]
*566 wbs_adr_i[7]
*567 wbs_adr_i[8]
*568 wbs_adr_i[9]
*569 wbs_cyc_i
*570 wbs_dat_i[0]
*571 wbs_dat_i[10]
*572 wbs_dat_i[11]
*573 wbs_dat_i[12]
*574 wbs_dat_i[13]
*575 wbs_dat_i[14]
*576 wbs_dat_i[15]
*577 wbs_dat_i[16]
*578 wbs_dat_i[17]
*579 wbs_dat_i[18]
*580 wbs_dat_i[19]
*581 wbs_dat_i[1]
*582 wbs_dat_i[20]
*583 wbs_dat_i[21]
*584 wbs_dat_i[22]
*585 wbs_dat_i[23]
*586 wbs_dat_i[24]
*587 wbs_dat_i[25]
*588 wbs_dat_i[26]
*589 wbs_dat_i[27]
*590 wbs_dat_i[28]
*591 wbs_dat_i[29]
*592 wbs_dat_i[2]
*593 wbs_dat_i[30]
*594 wbs_dat_i[31]
*595 wbs_dat_i[3]
*596 wbs_dat_i[4]
*597 wbs_dat_i[5]
*598 wbs_dat_i[6]
*599 wbs_dat_i[7]
*600 wbs_dat_i[8]
*601 wbs_dat_i[9]
*602 wbs_dat_o[0]
*603 wbs_dat_o[10]
*604 wbs_dat_o[11]
*605 wbs_dat_o[12]
*606 wbs_dat_o[13]
*607 wbs_dat_o[14]
*608 wbs_dat_o[15]
*609 wbs_dat_o[16]
*610 wbs_dat_o[17]
*611 wbs_dat_o[18]
*612 wbs_dat_o[19]
*613 wbs_dat_o[1]
*614 wbs_dat_o[20]
*615 wbs_dat_o[21]
*616 wbs_dat_o[22]
*617 wbs_dat_o[23]
*618 wbs_dat_o[24]
*619 wbs_dat_o[25]
*620 wbs_dat_o[26]
*621 wbs_dat_o[27]
*622 wbs_dat_o[28]
*623 wbs_dat_o[29]
*624 wbs_dat_o[2]
*625 wbs_dat_o[30]
*626 wbs_dat_o[31]
*627 wbs_dat_o[3]
*628 wbs_dat_o[4]
*629 wbs_dat_o[5]
*630 wbs_dat_o[6]
*631 wbs_dat_o[7]
*632 wbs_dat_o[8]
*633 wbs_dat_o[9]
*634 wbs_sel_i[0]
*635 wbs_sel_i[1]
*636 wbs_sel_i[2]
*637 wbs_sel_i[3]
*638 wbs_stb_i
*639 wbs_we_i
*640 u_macro_2to3
*641 u_macro_2xdrive
*642 u_macro_and_inv
*643 u_macro_golden

*PORTS
analog_io[0] I
analog_io[10] I
analog_io[11] I
analog_io[12] I
analog_io[13] I
analog_io[14] I
analog_io[15] I
analog_io[16] I
analog_io[17] I
analog_io[18] I
analog_io[19] I
analog_io[1] I
analog_io[20] I
analog_io[21] I
analog_io[22] I
analog_io[23] I
analog_io[24] I
analog_io[25] I
analog_io[26] I
analog_io[27] I
analog_io[28] I
analog_io[2] I
analog_io[3] I
analog_io[4] I
analog_io[5] I
analog_io[6] I
analog_io[7] I
analog_io[8] I
analog_io[9] I
io_in[0] I
io_in[10] I
io_in[11] I
io_in[12] I
io_in[13] I
io_in[14] I
io_in[15] I
io_in[16] I
io_in[17] I
io_in[18] I
io_in[19] I
io_in[1] I
io_in[20] I
io_in[21] I
io_in[22] I
io_in[23] I
io_in[24] I
io_in[25] I
io_in[26] I
io_in[27] I
io_in[28] I
io_in[29] I
io_in[2] I
io_in[30] I
io_in[31] I
io_in[32] I
io_in[33] I
io_in[34] I
io_in[35] I
io_in[36] I
io_in[37] I
io_in[3] I
io_in[4] I
io_in[5] I
io_in[6] I
io_in[7] I
io_in[8] I
io_in[9] I
io_oeb[0] O
io_oeb[10] O
io_oeb[11] O
io_oeb[12] O
io_oeb[13] O
io_oeb[14] O
io_oeb[15] O
io_oeb[16] O
io_oeb[17] O
io_oeb[18] O
io_oeb[19] O
io_oeb[1] O
io_oeb[20] O
io_oeb[21] O
io_oeb[22] O
io_oeb[23] O
io_oeb[24] O
io_oeb[25] O
io_oeb[26] O
io_oeb[27] O
io_oeb[28] O
io_oeb[29] O
io_oeb[2] O
io_oeb[30] O
io_oeb[31] O
io_oeb[32] O
io_oeb[33] O
io_oeb[34] O
io_oeb[35] O
io_oeb[36] O
io_oeb[37] O
io_oeb[3] O
io_oeb[4] O
io_oeb[5] O
io_oeb[6] O
io_oeb[7] O
io_oeb[8] O
io_oeb[9] O
io_out[0] O
io_out[10] O
io_out[11] O
io_out[12] O
io_out[13] O
io_out[14] O
io_out[15] O
io_out[16] O
io_out[17] O
io_out[18] O
io_out[19] O
io_out[1] O
io_out[20] O
io_out[21] O
io_out[22] O
io_out[23] O
io_out[24] O
io_out[25] O
io_out[26] O
io_out[27] O
io_out[28] O
io_out[29] O
io_out[2] O
io_out[30] O
io_out[31] O
io_out[32] O
io_out[33] O
io_out[34] O
io_out[35] O
io_out[36] O
io_out[37] O
io_out[3] O
io_out[4] O
io_out[5] O
io_out[6] O
io_out[7] O
io_out[8] O
io_out[9] O
la_data_in[0] I
la_data_in[100] I
la_data_in[101] I
la_data_in[102] I
la_data_in[103] I
la_data_in[104] I
la_data_in[105] I
la_data_in[106] I
la_data_in[107] I
la_data_in[108] I
la_data_in[109] I
la_data_in[10] I
la_data_in[110] I
la_data_in[111] I
la_data_in[112] I
la_data_in[113] I
la_data_in[114] I
la_data_in[115] I
la_data_in[116] I
la_data_in[117] I
la_data_in[118] I
la_data_in[119] I
la_data_in[11] I
la_data_in[120] I
la_data_in[121] I
la_data_in[122] I
la_data_in[123] I
la_data_in[124] I
la_data_in[125] I
la_data_in[126] I
la_data_in[127] I
la_data_in[12] I
la_data_in[13] I
la_data_in[14] I
la_data_in[15] I
la_data_in[16] I
la_data_in[17] I
la_data_in[18] I
la_data_in[19] I
la_data_in[1] I
la_data_in[20] I
la_data_in[21] I
la_data_in[22] I
la_data_in[23] I
la_data_in[24] I
la_data_in[25] I
la_data_in[26] I
la_data_in[27] I
la_data_in[28] I
la_data_in[29] I
la_data_in[2] I
la_data_in[30] I
la_data_in[31] I
la_data_in[32] I
la_data_in[33] I
la_data_in[34] I
la_data_in[35] I
la_data_in[36] I
la_data_in[37] I
la_data_in[38] I
la_data_in[39] I
la_data_in[3] I
la_data_in[40] I
la_data_in[41] I
la_data_in[42] I
la_data_in[43] I
la_data_in[44] I
la_data_in[45] I
la_data_in[46] I
la_data_in[47] I
la_data_in[48] I
la_data_in[49] I
la_data_in[4] I
la_data_in[50] I
la_data_in[51] I
la_data_in[52] I
la_data_in[53] I
la_data_in[54] I
la_data_in[55] I
la_data_in[56] I
la_data_in[57] I
la_data_in[58] I
la_data_in[59] I
la_data_in[5] I
la_data_in[60] I
la_data_in[61] I
la_data_in[62] I
la_data_in[63] I
la_data_in[64] I
la_data_in[65] I
la_data_in[66] I
la_data_in[67] I
la_data_in[68] I
la_data_in[69] I
la_data_in[6] I
la_data_in[70] I
la_data_in[71] I
la_data_in[72] I
la_data_in[73] I
la_data_in[74] I
la_data_in[75] I
la_data_in[76] I
la_data_in[77] I
la_data_in[78] I
la_data_in[79] I
la_data_in[7] I
la_data_in[80] I
la_data_in[81] I
la_data_in[82] I
la_data_in[83] I
la_data_in[84] I
la_data_in[85] I
la_data_in[86] I
la_data_in[87] I
la_data_in[88] I
la_data_in[89] I
la_data_in[8] I
la_data_in[90] I
la_data_in[91] I
la_data_in[92] I
la_data_in[93] I
la_data_in[94] I
la_data_in[95] I
la_data_in[96] I
la_data_in[97] I
la_data_in[98] I
la_data_in[99] I
la_data_in[9] I
la_data_out[0] O
la_data_out[100] O
la_data_out[101] O
la_data_out[102] O
la_data_out[103] O
la_data_out[104] O
la_data_out[105] O
la_data_out[106] O
la_data_out[107] O
la_data_out[108] O
la_data_out[109] O
la_data_out[10] O
la_data_out[110] O
la_data_out[111] O
la_data_out[112] O
la_data_out[113] O
la_data_out[114] O
la_data_out[115] O
la_data_out[116] O
la_data_out[117] O
la_data_out[118] O
la_data_out[119] O
la_data_out[11] O
la_data_out[120] O
la_data_out[121] O
la_data_out[122] O
la_data_out[123] O
la_data_out[124] O
la_data_out[125] O
la_data_out[126] O
la_data_out[127] O
la_data_out[12] O
la_data_out[13] O
la_data_out[14] O
la_data_out[15] O
la_data_out[16] O
la_data_out[17] O
la_data_out[18] O
la_data_out[19] O
la_data_out[1] O
la_data_out[20] O
la_data_out[21] O
la_data_out[22] O
la_data_out[23] O
la_data_out[24] O
la_data_out[25] O
la_data_out[26] O
la_data_out[27] O
la_data_out[28] O
la_data_out[29] O
la_data_out[2] O
la_data_out[30] O
la_data_out[31] O
la_data_out[32] O
la_data_out[33] O
la_data_out[34] O
la_data_out[35] O
la_data_out[36] O
la_data_out[37] O
la_data_out[38] O
la_data_out[39] O
la_data_out[3] O
la_data_out[40] O
la_data_out[41] O
la_data_out[42] O
la_data_out[43] O
la_data_out[44] O
la_data_out[45] O
la_data_out[46] O
la_data_out[47] O
la_data_out[48] O
la_data_out[49] O
la_data_out[4] O
la_data_out[50] O
la_data_out[51] O
la_data_out[52] O
la_data_out[53] O
la_data_out[54] O
la_data_out[55] O
la_data_out[56] O
la_data_out[57] O
la_data_out[58] O
la_data_out[59] O
la_data_out[5] O
la_data_out[60] O
la_data_out[61] O
la_data_out[62] O
la_data_out[63] O
la_data_out[64] O
la_data_out[65] O
la_data_out[66] O
la_data_out[67] O
la_data_out[68] O
la_data_out[69] O
la_data_out[6] O
la_data_out[70] O
la_data_out[71] O
la_data_out[72] O
la_data_out[73] O
la_data_out[74] O
la_data_out[75] O
la_data_out[76] O
la_data_out[77] O
la_data_out[78] O
la_data_out[79] O
la_data_out[7] O
la_data_out[80] O
la_data_out[81] O
la_data_out[82] O
la_data_out[83] O
la_data_out[84] O
la_data_out[85] O
la_data_out[86] O
la_data_out[87] O
la_data_out[88] O
la_data_out[89] O
la_data_out[8] O
la_data_out[90] O
la_data_out[91] O
la_data_out[92] O
la_data_out[93] O
la_data_out[94] O
la_data_out[95] O
la_data_out[96] O
la_data_out[97] O
la_data_out[98] O
la_data_out[99] O
la_data_out[9] O
la_oenb[0] I
la_oenb[100] I
la_oenb[101] I
la_oenb[102] I
la_oenb[103] I
la_oenb[104] I
la_oenb[105] I
la_oenb[106] I
la_oenb[107] I
la_oenb[108] I
la_oenb[109] I
la_oenb[10] I
la_oenb[110] I
la_oenb[111] I
la_oenb[112] I
la_oenb[113] I
la_oenb[114] I
la_oenb[115] I
la_oenb[116] I
la_oenb[117] I
la_oenb[118] I
la_oenb[119] I
la_oenb[11] I
la_oenb[120] I
la_oenb[121] I
la_oenb[122] I
la_oenb[123] I
la_oenb[124] I
la_oenb[125] I
la_oenb[126] I
la_oenb[127] I
la_oenb[12] I
la_oenb[13] I
la_oenb[14] I
la_oenb[15] I
la_oenb[16] I
la_oenb[17] I
la_oenb[18] I
la_oenb[19] I
la_oenb[1] I
la_oenb[20] I
la_oenb[21] I
la_oenb[22] I
la_oenb[23] I
la_oenb[24] I
la_oenb[25] I
la_oenb[26] I
la_oenb[27] I
la_oenb[28] I
la_oenb[29] I
la_oenb[2] I
la_oenb[30] I
la_oenb[31] I
la_oenb[32] I
la_oenb[33] I
la_oenb[34] I
la_oenb[35] I
la_oenb[36] I
la_oenb[37] I
la_oenb[38] I
la_oenb[39] I
la_oenb[3] I
la_oenb[40] I
la_oenb[41] I
la_oenb[42] I
la_oenb[43] I
la_oenb[44] I
la_oenb[45] I
la_oenb[46] I
la_oenb[47] I
la_oenb[48] I
la_oenb[49] I
la_oenb[4] I
la_oenb[50] I
la_oenb[51] I
la_oenb[52] I
la_oenb[53] I
la_oenb[54] I
la_oenb[55] I
la_oenb[56] I
la_oenb[57] I
la_oenb[58] I
la_oenb[59] I
la_oenb[5] I
la_oenb[60] I
la_oenb[61] I
la_oenb[62] I
la_oenb[63] I
la_oenb[64] I
la_oenb[65] I
la_oenb[66] I
la_oenb[67] I
la_oenb[68] I
la_oenb[69] I
la_oenb[6] I
la_oenb[70] I
la_oenb[71] I
la_oenb[72] I
la_oenb[73] I
la_oenb[74] I
la_oenb[75] I
la_oenb[76] I
la_oenb[77] I
la_oenb[78] I
la_oenb[79] I
la_oenb[7] I
la_oenb[80] I
la_oenb[81] I
la_oenb[82] I
la_oenb[83] I
la_oenb[84] I
la_oenb[85] I
la_oenb[86] I
la_oenb[87] I
la_oenb[88] I
la_oenb[89] I
la_oenb[8] I
la_oenb[90] I
la_oenb[91] I
la_oenb[92] I
la_oenb[93] I
la_oenb[94] I
la_oenb[95] I
la_oenb[96] I
la_oenb[97] I
la_oenb[98] I
la_oenb[99] I
la_oenb[9] I
user_clock2 I
user_irq[0] O
user_irq[1] O
user_irq[2] O
wb_clk_i I
wb_rst_i I
wbs_ack_o O
wbs_adr_i[0] I
wbs_adr_i[10] I
wbs_adr_i[11] I
wbs_adr_i[12] I
wbs_adr_i[13] I
wbs_adr_i[14] I
wbs_adr_i[15] I
wbs_adr_i[16] I
wbs_adr_i[17] I
wbs_adr_i[18] I
wbs_adr_i[19] I
wbs_adr_i[1] I
wbs_adr_i[20] I
wbs_adr_i[21] I
wbs_adr_i[22] I
wbs_adr_i[23] I
wbs_adr_i[24] I
wbs_adr_i[25] I
wbs_adr_i[26] I
wbs_adr_i[27] I
wbs_adr_i[28] I
wbs_adr_i[29] I
wbs_adr_i[2] I
wbs_adr_i[30] I
wbs_adr_i[31] I
wbs_adr_i[3] I
wbs_adr_i[4] I
wbs_adr_i[5] I
wbs_adr_i[6] I
wbs_adr_i[7] I
wbs_adr_i[8] I
wbs_adr_i[9] I
wbs_cyc_i I
wbs_dat_i[0] I
wbs_dat_i[10] I
wbs_dat_i[11] I
wbs_dat_i[12] I
wbs_dat_i[13] I
wbs_dat_i[14] I
wbs_dat_i[15] I
wbs_dat_i[16] I
wbs_dat_i[17] I
wbs_dat_i[18] I
wbs_dat_i[19] I
wbs_dat_i[1] I
wbs_dat_i[20] I
wbs_dat_i[21] I
wbs_dat_i[22] I
wbs_dat_i[23] I
wbs_dat_i[24] I
wbs_dat_i[25] I
wbs_dat_i[26] I
wbs_dat_i[27] I
wbs_dat_i[28] I
wbs_dat_i[29] I
wbs_dat_i[2] I
wbs_dat_i[30] I
wbs_dat_i[31] I
wbs_dat_i[3] I
wbs_dat_i[4] I
wbs_dat_i[5] I
wbs_dat_i[6] I
wbs_dat_i[7] I
wbs_dat_i[8] I
wbs_dat_i[9] I
wbs_dat_o[0] O
wbs_dat_o[10] O
wbs_dat_o[11] O
wbs_dat_o[12] O
wbs_dat_o[13] O
wbs_dat_o[14] O
wbs_dat_o[15] O
wbs_dat_o[16] O
wbs_dat_o[17] O
wbs_dat_o[18] O
wbs_dat_o[19] O
wbs_dat_o[1] O
wbs_dat_o[20] O
wbs_dat_o[21] O
wbs_dat_o[22] O
wbs_dat_o[23] O
wbs_dat_o[24] O
wbs_dat_o[25] O
wbs_dat_o[26] O
wbs_dat_o[27] O
wbs_dat_o[28] O
wbs_dat_o[29] O
wbs_dat_o[2] O
wbs_dat_o[30] O
wbs_dat_o[31] O
wbs_dat_o[3] O
wbs_dat_o[4] O
wbs_dat_o[5] O
wbs_dat_o[6] O
wbs_dat_o[7] O
wbs_dat_o[8] O
wbs_dat_o[9] O
wbs_sel_i[0] I
wbs_sel_i[1] I
wbs_sel_i[2] I
wbs_sel_i[3] I
wbs_stb_i I
wbs_we_i I

*D_NET *30 0.740651
*CONN
*P io_in[0] I
*I *641:io_in[0] I *D macro_2xdrive
*I *640:io_in[0] I *D macro_2to3
*I *642:io_in[0] I *D macro_and_inv
*I *643:io_in[0] I *D macro_golden
*CAP
1 io_in[0] 0.000905974
2 *641:io_in[0] 0.00160153
3 *640:io_in[0] 0.00254187
4 *642:io_in[0] 0.00126927
5 *643:io_in[0] 0.00149968
6 *30:44 0.011737
7 *30:43 0.0104677
8 *30:41 0.010364
9 *30:40 0.010364
10 *30:38 0.0163235
11 *30:37 0.0137816
12 *30:35 0.00783001
13 *30:34 0.00783001
14 *30:32 0.0150085
15 *30:31 0.013407
16 *30:29 0.0110848
17 *30:28 0.0110848
18 *30:17 0.0159325
19 *30:16 0.0161936
20 *30:11 0.107022
21 *30:10 0.105261
22 *30:8 0.0299985
23 *30:7 0.0309044
24 *640:io_in[0] *640:io_active 0
25 *640:io_in[0] *79:44 0.000403829
26 *640:io_in[0] *121:50 0.000844822
27 *641:io_in[0] *641:io_oeb[0] 0.00024832
28 *641:io_in[0] *114:23 1.05364e-05
29 *641:io_in[0] *114:26 0.000182169
30 *641:io_in[0] *115:22 0.000210316
31 *641:io_in[0] *120:25 9.28078e-06
32 *641:io_in[0] *121:18 0.00175516
33 *641:io_in[0] *138:22 0.00175592
34 *641:io_in[0] *140:22 0.000126114
35 *641:io_in[0] *140:29 9.28078e-06
36 *641:io_in[0] *143:20 0.000137651
37 *641:io_in[0] *194:69 1.69877e-05
38 *641:io_in[0] *194:71 0.000220228
39 *641:io_in[0] *400:62 7.10634e-05
40 *642:io_in[0] *642:io_oeb[0] 0
41 *642:io_in[0] *642:io_oeb[7] 9.24636e-05
42 *642:io_in[0] *642:io_out[1] 0.00083459
43 *642:io_in[0] *99:70 0.00169075
44 *642:io_in[0] *116:72 0.000180268
45 *642:io_in[0] *125:76 0.000167007
46 *642:io_in[0] *135:82 0.000144657
47 *642:io_in[0] *142:66 0.000180679
48 *643:io_in[0] *68:7 0.000860976
49 *643:io_in[0] *602:39 0.000440214
50 *30:8 io_oeb[0] 8.22421e-06
51 *30:8 io_out[0] 0.000125453
52 *30:8 io_out[2] 0.000258024
53 *30:8 *41:8 0.0112411
54 *30:8 *52:8 0.00455115
55 *30:8 *61:8 0.0114958
56 *30:8 *137:84 0.0273314
57 *30:8 *138:66 0.0110565
58 *30:11 *63:10 5.37369e-05
59 *30:11 *299:14 0
60 *30:11 *402:33 0
61 *30:11 *410:30 0.000941338
62 *30:16 *59:26 0.000104065
63 *30:16 *402:30 0
64 *30:17 *105:10 0.000100139
65 *30:17 *411:32 0
66 *30:17 *444:34 0.0109254
67 *30:17 *445:30 0.000524237
68 *30:17 *446:35 0
69 *30:29 *90:7 0.00238572
70 *30:29 *99:13 0.0313046
71 *30:29 *128:7 0.000520804
72 *30:29 *604:29 0.00084475
73 *30:32 *116:14 0.00123767
74 *30:32 *140:22 0.00210401
75 *30:32 *143:20 0.0026927
76 *30:35 *52:26 0.03228
77 *30:35 *61:50 0.00455713
78 *30:35 *120:17 1.58785e-05
79 *30:35 *140:31 0.00992707
80 *30:35 *251:31 0.000133523
81 *30:35 *400:62 0.00247998
82 *30:38 *41:61 0
83 *30:38 *52:29 0.00267412
84 *30:38 *61:53 0.0290582
85 *30:38 *62:57 0.00267412
86 *30:38 *79:44 7.86004e-05
87 *30:38 *121:39 9.22432e-05
88 *30:38 *121:50 1.0334e-05
89 *30:38 *128:22 0
90 *30:38 *138:45 0
91 *30:41 *65:72 0
92 *30:41 *121:39 0.000270257
93 *30:41 *121:79 0.0312323
94 *30:41 *183:83 0
95 *30:41 *191:99 0.000660253
96 *30:41 *254:94 0.000477302
97 *30:41 *555:105 0.00927976
98 *30:44 *642:io_out[1] 0.000330835
99 *30:44 *68:48 0.0269599
100 *30:44 *83:40 0
101 *30:44 *83:57 0
102 *30:44 *99:70 0.00189124
103 *30:44 *115:64 0.00256384
104 *30:44 *138:84 0.000190845
*RES
1 io_in[0] *30:7 10.9904 
2 *30:7 *30:8 1034.04 
3 *30:8 *30:10 8 
4 *30:10 *30:11 352.066 
5 *30:11 *30:16 21.5141 
6 *30:16 *30:17 33.9304 
7 *30:17 *643:io_in[0] 21.8013 
8 *30:17 *30:28 8 
9 *30:28 *30:29 413.033 
10 *30:29 *30:31 15 
11 *30:31 *30:32 277.426 
12 *30:32 *30:34 15 
13 *30:34 *30:35 421.836 
14 *30:35 *30:37 8 
15 *30:37 *30:38 56.4704 
16 *30:38 *30:40 8 
17 *30:40 *30:41 405.814 
18 *30:41 *30:43 8 
19 *30:43 *30:44 55.9981 
20 *30:44 *642:io_in[0] 21.8515 
21 *30:38 *640:io_in[0] 29.6865 
22 *30:32 *641:io_in[0] 48.7421 
*END

*D_NET *31 0.51232
*CONN
*P io_in[10] I
*I *643:io_in[10] I *D macro_golden
*I *641:io_in[10] I *D macro_2xdrive
*I *640:io_in[10] I *D macro_2to3
*I *642:io_in[10] I *D macro_and_inv
*CAP
1 io_in[10] 0.0012188
2 *643:io_in[10] 0.000583001
3 *641:io_in[10] 0.000814192
4 *640:io_in[10] 0.00117225
5 *642:io_in[10] 0.000538804
6 *31:79 0.0053272
7 *31:78 0.0047442
8 *31:76 0.00799275
9 *31:75 0.00799275
10 *31:73 0.00288429
11 *31:72 0.00288429
12 *31:64 0.000958783
13 *31:61 0.00774293
14 *31:60 0.00759834
15 *31:58 0.00716607
16 *31:57 0.00769764
17 *31:51 0.00198265
18 *31:50 0.00145107
19 *31:40 0.00139485
20 *31:37 0.000995685
21 *31:34 0.013908
22 *31:33 0.0131349
23 *31:31 0.00728048
24 *31:30 0.00728048
25 *31:20 0.000777925
26 *31:14 0.00132719
27 *31:11 0.0543745
28 *31:10 0.0545052
29 *640:io_in[10] *640:io_oeb[10] 0
30 *640:io_in[10] *640:io_out[9] 0.000219799
31 *640:io_in[10] *33:50 5.94125e-05
32 *640:io_in[10] *107:49 0
33 *640:io_in[10] *139:55 0
34 *640:io_in[10] *143:41 5.0135e-05
35 *641:io_in[10] *641:io_out[10] 0
36 *641:io_in[10] *641:io_out[9] 0
37 *641:io_in[10] *107:24 0.000516325
38 *641:io_in[10] *143:31 0
39 *642:io_in[10] *642:io_oeb[10] 0.000723836
40 *642:io_in[10] *642:io_out[9] 0
41 *642:io_in[10] *143:61 0
42 *643:io_in[10] *69:8 0
43 *643:io_in[10] *143:7 0
44 *643:io_in[10] *494:38 0.000116881
45 *31:10 *32:8 0.000287538
46 *31:11 *34:17 0
47 *31:11 *97:57 0
48 *31:11 *122:79 0.00725049
49 *31:11 *123:82 0.0003421
50 *31:11 *132:65 0.00159295
51 *31:14 *642:io_oeb[10] 0
52 *31:14 *642:io_out[10] 0.000599042
53 *31:14 *69:62 0
54 *31:14 *69:64 0
55 *31:14 *108:59 0
56 *31:20 *642:io_oeb[10] 0.000278625
57 *31:20 *32:25 0.000268074
58 *31:20 *136:75 0
59 *31:20 *143:61 0
60 *31:31 *99:70 0.00447025
61 *31:31 *115:64 0.00163653
62 *31:31 *116:72 0.000452498
63 *31:31 *118:64 0.0220662
64 *31:31 *125:76 0.000112697
65 *31:31 *135:82 7.45491e-05
66 *31:31 *139:58 0.00158487
67 *31:31 *142:66 0.00542072
68 *31:34 *35:32 0.0300018
69 *31:34 *73:43 0.000323861
70 *31:34 *122:54 0
71 *31:37 *34:29 0
72 *31:37 *40:54 0.00218751
73 *31:40 *33:50 8.9458e-05
74 *31:40 *67:45 0
75 *31:40 *139:55 0
76 *31:51 *32:35 0.00151759
77 *31:51 *32:37 0.000147009
78 *31:51 *33:51 5.62286e-05
79 *31:51 *34:43 0.00664666
80 *31:51 *52:29 0.000468897
81 *31:51 *52:49 0.00202486
82 *31:51 *62:74 0.00052638
83 *31:57 *32:45 9.5877e-05
84 *31:57 *33:51 0.00139783
85 *31:57 *52:29 0.000677861
86 *31:58 *640:wbs_dat_i[4] 0.000159275
87 *31:58 *34:52 0.00178582
88 *31:58 *101:72 0.0238397
89 *31:58 *138:40 0.00265731
90 *31:58 *225:62 0.000311394
91 *31:58 *235:78 0.000111826
92 *31:58 *235:122 0.000280856
93 *31:58 *235:124 0.0208674
94 *31:58 *364:41 0.00873524
95 *31:58 *550:33 0.000129533
96 *31:58 *558:95 0.00452588
97 *31:61 *32:49 0.0194307
98 *31:61 *32:54 0.000528921
99 *31:61 *36:100 0.00169989
100 *31:61 *96:43 0.00014625
101 *31:61 *131:41 9.87414e-05
102 *31:61 *446:63 0.00119703
103 *31:64 *107:24 0.000272321
104 *31:64 *143:31 0
105 *31:73 *641:io_in[5] 0.000287817
106 *31:73 *641:io_oeb[6] 2.93985e-05
107 *31:73 *41:35 0.000210316
108 *31:73 *62:39 0.000171241
109 *31:73 *62:47 0.000831452
110 *31:73 *63:41 0.00397832
111 *31:73 *102:10 0.000710544
112 *31:73 *116:14 0
113 *31:73 *127:20 0.0015161
114 *31:73 *141:10 0.000172423
115 *31:73 *141:21 0.000313562
116 *31:76 *62:36 0
117 *31:76 *166:35 0.00210723
118 *31:76 *166:57 0.0212072
119 *31:76 *196:64 0.0216596
120 *31:76 *197:34 0.0071614
121 *31:76 *216:30 0
122 *31:76 *251:19 0.00959486
123 *31:79 *65:35 6.50258e-05
124 *31:79 *65:39 0.00229683
125 *31:79 *96:14 0.000225394
126 *31:79 *111:8 0.0173015
127 *31:79 *132:8 0.0122086
128 *31:79 *135:8 0
129 *31:79 *135:28 0
130 *31:79 *135:30 0.00307078
131 *31:79 *445:30 0.000407698
*RES
1 io_in[10] *31:10 33.1739 
2 *31:10 *31:11 1161.2 
3 *31:11 *31:14 36.9779 
4 *31:14 *31:20 36.67 
5 *31:20 *642:io_in[10] 10.4918 
6 *31:20 *31:30 15 
7 *31:30 *31:31 286.479 
8 *31:31 *31:33 15 
9 *31:33 *31:34 402.996 
10 *31:34 *31:37 38.9664 
11 *31:37 *31:40 20.075 
12 *31:40 *640:io_in[10] 19.4196 
13 *31:40 *31:50 15 
14 *31:50 *31:51 74.4679 
15 *31:51 *31:57 31.3643 
16 *31:57 *31:58 413.561 
17 *31:58 *31:60 15 
18 *31:60 *31:61 221.684 
19 *31:61 *31:64 18.6664 
20 *31:64 *641:io_in[10] 13.9821 
21 *31:64 *31:72 15 
22 *31:72 *31:73 91.6193 
23 *31:73 *31:75 15 